geometry optimzed in LAMMPS
_audit_creation_date              2020-11-30 
_audit_creation_method            'lammps2cif' 
_symmetry_space_group_name_H-M    'P1' 
_symmetry_Int_Tables_number       1 
_symmetry_cell_setting            triclinic 
loop_ 
_symmetry_equiv_pos_as_xyz 
  x,y,z 
_cell_length_a                    38.69934431 
_cell_length_b                    38.74051183813938 
_cell_length_c                    33.8194668116185 
_cell_angle_alpha                 90.35960861935646 
_cell_angle_beta                  89.74483552897058 
_cell_angle_gamma                 90.04713304421371 
loop_ 
_atom_site_label 
_atom_site_type_symbol 
_atom_site_fract_x 
_atom_site_fract_y 
_atom_site_fract_z 
_atom_site_charge 
C1          C  0.18084148  0.50432587  0.16402328     0.03000
C2          C  0.16248056  0.50629041  0.12818387    -0.13200
C3          C  0.12744863  0.00272817  0.12784469     0.00500
C4          C  0.10949933  0.00543575  0.16377164    -0.11700
C5          C  0.12722931  0.00295553  0.19963847     0.03000
C6          C  0.16235219  0.50690840  0.19992269    -0.11100
H7          H  0.17598481  0.50325369  0.10024096     0.08500
H8          H  0.08168844  0.00884197  0.16381523     0.06100
H9          H  0.17581178  0.50505350  0.22785221     0.05900
C10         C  0.33058109  0.48863084  0.16474018     0.03000
C11         C  0.34929057  0.48657874  0.12895291    -0.13200
C12         C  0.38637199  0.98052793  0.12910607     0.00500
C13         C  0.40403403  0.97826015  0.16504597    -0.11700
C14         C  0.38591324  0.98076018  0.20089830     0.03000
C15         C  0.34882566  0.48695526  0.20066710    -0.11100
H16         H  0.33595149  0.48847098  0.10095175     0.08500
H17         H  0.43197551  0.97617768  0.16512003     0.06100
H18         H  0.33517167  0.48987990  0.22853069     0.05900
C19         C  0.01060954  0.17685299  0.16577397     0.03000
C20         C  0.00860658  0.15823538  0.12989879    -0.13200
C21         C  0.00440745  0.12227285  0.12990591     0.00500
C22         C  0.00194324  0.10461369  0.16578050    -0.11700
C23         C  0.00460367  0.12262277  0.20163816     0.03000
C24         C  0.00918881  0.15851952  0.20161957    -0.11100
H25         H  0.00941393  0.17165393  0.10190881     0.08500
H26         H  0.99856591  0.07682360  0.16579200     0.06100
H27         H  0.01154808  0.17207351  0.22960349     0.05900
C28         C  0.01603900  0.32698173  0.16367402     0.03000
C29         C  0.01586791  0.34468370  0.12738400    -0.13200
C30         C  0.01664917  0.38086222  0.12656090     0.00500
C31         C  0.01732869  0.39969313  0.16199473    -0.11700
C32         C  0.01676978  0.38250807  0.19824050     0.03000
C33         C  0.01635663  0.34635934  0.19907912    -0.11100
H34         H  0.01481190  0.33046195  0.09972566     0.08500
H35         H  0.01777197  0.42767416  0.16135789     0.06100
H36         H  0.01678080  0.33346102  0.22739617     0.05900
C37         C  0.01656494  0.39915039  0.08875279     0.42300
N38         N  0.50438279  0.42756322  0.03962800     0.01200
C39         C  0.09388259  0.03516856  0.25664607    -0.06700
H40         H  0.09701774  0.06170753  0.07986853     0.06700
C41         C  0.45869995  0.08292993  0.07407830    -0.07000
Co42       Co  0.05587414  0.46403805  0.33029328     0.74200
N43         N  0.07606266  0.02253647  0.04094550    -0.26200
Co44       Co  0.04783170  0.04882357  0.33146961     0.74100
C45         C  0.00279323  0.10303835  0.09244747     0.42400
N46         N  0.43230245  0.00200621  0.04137292     0.00800
N47         N  0.01857275  0.07354637  0.04184316     0.00900
N48         N  0.09865942  0.48492970  0.25809439    -0.47100
H49         H  0.07285469  0.41552732  0.07759788     0.06700
N50         N  0.07859406  0.49472118  0.04066790     0.01200
N51         N  0.01856224  0.07391622  0.28881247     0.00900
C52         C  0.00288469  0.10380434  0.23909251     0.42500
N53         N  0.43946880  0.46931003  0.04120418    -0.25700
C54         C  0.04569071  0.41842927  0.25490308    -0.06600
N55         N  0.49559986  0.40608410  0.06836190    -0.46800
N56         N  0.03066084  0.09295894  0.25942508    -0.47000
C57         C  0.01639910  0.40233738  0.23528329     0.42300
N58         N  0.07863462  0.49539605  0.28767547     0.01200
N59         N  0.43933608  0.46988570  0.28749633    -0.25700
N60         N  0.03193561  0.43343826  0.03959783    -0.26200
N61         N  0.43215234  0.00233414  0.28836557     0.00800
H62         H  0.42512576  0.42816978  0.24795196     0.06700
H63         H  0.43185753  0.08223731  0.24933505     0.06700
N64         N  0.07597806  0.02282751  0.28759380    -0.26200
N65         N  0.47342617  0.06726126  0.04260051    -0.25900
N66         N  0.50443372  0.42857214  0.28655097     0.01200
C67         C  0.10846423  0.00427561  0.09041441     0.42400
C68         C  0.42397385  0.45439938  0.07241429    -0.07100
N69         N  0.47344108  0.06777990  0.28850483    -0.25900
H70         H  0.43176574  0.08131816  0.08251473     0.06700
N71         N  0.09873543  0.48405865  0.06974845    -0.47100
H72         H  0.42567645  0.42746731  0.08037271     0.06700
C73         C  0.40497711  0.98197842  0.23835211     0.42400
C74         C  0.04577689  0.41617222  0.06989212    -0.06600
Co75       Co  0.47146637  0.44816974  0.33038575     0.73800
N76         N  0.41169585  0.01077242  0.07114656    -0.46800
C77         C  0.10804753  0.00461975  0.23715635     0.42700
N78         N  0.49567755  0.40780155  0.25693352    -0.46800
Co79       Co  0.45210184  0.03526053  0.33185243     0.73900
C80         C  0.45876752  0.08381795  0.25763173    -0.07100
C81         C  0.09413876  0.03482256  0.07174646    -0.06700
N82         N  0.03189457  0.43457205  0.28642094    -0.26200
N83         N  0.03061254  0.09241913  0.07156669    -0.47000
H84         H  0.09672930  0.06206537  0.24891800     0.06700
C85         C  0.42351877  0.45508252  0.25642363    -0.07100
Cl86       Cl  0.00576650  0.00130978  0.33115040    -0.50100
C87         C  0.40577048  0.98168933  0.09175504     0.42400
H88         H  0.07275601  0.41798504  0.24684868     0.06700
N89         N  0.41123408  0.01111039  0.25918110    -0.46800
C90         C  0.48912515  0.23648770  0.19510131    -0.13500
C91         C  0.01307409  0.21529491  0.16583980     0.08600
C92         C  0.03237756  0.23273614  0.13681205    -0.13500
C93         C  0.03356729  0.26885304  0.13623774    -0.13500
C94         C  0.01544503  0.28849494  0.16466593     0.08600
C95         C  0.49413956  0.27235793  0.19453089    -0.13500
H96         H  0.47323725  0.22569522  0.21835031     0.12600
H97         H  0.04689351  0.21847158  0.11468096     0.12600
H98         H  0.04900598  0.28137635  0.11374427     0.12600
H99         H  0.48189612  0.28779332  0.21739882     0.12600
C100        C  0.24039507  0.01246061  0.13714206    -0.13500
C101        C  0.21917394  0.49993634  0.16397223     0.08600
C102        C  0.23535651  0.47794032  0.19115475    -0.13500
C103        C  0.27139206  0.47437910  0.19145314    -0.13500
C104        C  0.29221085  0.49272363  0.16459116     0.08600
C105        C  0.27647113  0.00998230  0.13757774    -0.13500
H106        H  0.22838649  0.02996424  0.11650355     0.12600
H107        H  0.22010239  0.46310009  0.21191020     0.12600
H108        H  0.28295938  0.45682713  0.21236515     0.12600
H109        H  0.29133626  0.02558853  0.11719862     0.12600
C110        C  0.18084144  0.50432591  0.49735664     0.03000
C111        C  0.16248054  0.50629047  0.46151722    -0.13200
C112        C  0.12744868  0.00272824  0.46117804     0.00500
C113        C  0.10949936  0.00543579  0.49710497    -0.11700
C114        C  0.12722932  0.00295552  0.53297186     0.03000
C115        C  0.16235211  0.50690846  0.53325601    -0.11100
H116        H  0.17598476  0.50325377  0.43357432     0.08500
H117        H  0.08168849  0.00884206  0.49714854     0.06100
H118        H  0.17581170  0.50505355  0.56118558     0.05900
C119        C  0.33058115  0.48863094  0.49807355     0.03000
C120        C  0.34929063  0.48657878  0.46228627    -0.13200
C121        C  0.38637194  0.98052794  0.46243942     0.00500
C122        C  0.40403401  0.97826021  0.49837933    -0.11700
C123        C  0.38591320  0.98076011  0.53423165     0.03000
C124        C  0.34882571  0.48695534  0.53400048    -0.11100
H125        H  0.33595160  0.48847110  0.43428513     0.08500
H126        H  0.43197549  0.97617779  0.49845343     0.06100
H127        H  0.33517175  0.48988002  0.56186406     0.05900
C128        C  0.01060945  0.17685296  0.49910731     0.03000
C129        C  0.00860647  0.15823537  0.46323213    -0.13200
C130        C  0.00440740  0.12227281  0.46323922     0.00500
C131        C  0.00194330  0.10461364  0.49911380    -0.11700
C132        C  0.00460367  0.12262270  0.53497147     0.03000
C133        C  0.00918882  0.15851946  0.53495290    -0.11100
H134        H  0.00941380  0.17165393  0.43524216     0.08500
H135        H  0.99856609  0.07682349  0.49912530     0.06100
H136        H  0.01154815  0.17207342  0.56293679     0.05900
C137        C  0.01603895  0.32698169  0.49700732     0.03000
C138        C  0.01586780  0.34468366  0.46071731    -0.13200
C139        C  0.01664909  0.38086216  0.45989421     0.00500
C140        C  0.01732872  0.39969308  0.49532808    -0.11700
C141        C  0.01676975  0.38250800  0.53157387     0.03000
C142        C  0.01635653  0.34635929  0.53241245    -0.11100
H143        H  0.01481177  0.33046190  0.43305894     0.08500
H144        H  0.01777211  0.42767408  0.49469125     0.06100
H145        H  0.01678071  0.33346095  0.56072948     0.05900
C146        C  0.01656490  0.39915032  0.42208607     0.42300
N147        N  0.50438284  0.42756327  0.37296135     0.01200
C148        C  0.09388260  0.03516860  0.58997946    -0.06700
H149        H  0.09701782  0.06170760  0.41320178     0.06700
C150        C  0.45869993  0.08292989  0.40741165    -0.07000
Co151      Co  0.05587413  0.46403810  0.66362662     0.74200
N152        N  0.07606269  0.02253652  0.37427880    -0.26200
Co153      Co  0.04783173  0.04882359  0.66480299     0.74100
C154        C  0.00279320  0.10303833  0.42578079     0.42400
N155        N  0.43230238  0.00200618  0.37470625     0.00800
N156        N  0.01857275  0.07354639  0.37517646     0.00900
N157        N  0.09865935  0.48492976  0.59142769    -0.47100
H158        H  0.07285467  0.41552709  0.41093115     0.06700
N159        N  0.07859413  0.49472119  0.37400122     0.01200
N160        N  0.01856232  0.07391624  0.62214583     0.00900
C161        C  0.00288470  0.10380429  0.57242583     0.42500
N162        N  0.43946890  0.46931006  0.37453754    -0.25700
C163        C  0.04569071  0.41842927  0.58823648    -0.06600
N164        N  0.49559989  0.40608409  0.40169520    -0.46800
N165        N  0.03066088  0.09295897  0.59275842    -0.47000
C166        C  0.01639912  0.40233731  0.56861671     0.42300
N167        N  0.07863460  0.49539610  0.62100883     0.01200
N168        N  0.43933612  0.46988572  0.62082964    -0.25700
N169        N  0.03193564  0.43343820  0.37293115    -0.26200
N170        N  0.43215231  0.00233415  0.62169891     0.00800
H171        H  0.42512566  0.42816980  0.58128537     0.06700
H172        H  0.43185747  0.08223730  0.58266840     0.06700
N173        N  0.07597808  0.02282755  0.62092721    -0.26200
N174        N  0.47342618  0.06726118  0.37593387    -0.25900
N175        N  0.50443370  0.42857208  0.61988433     0.01200
C176        C  0.10846432  0.00427569  0.42374770     0.42400
C177        C  0.42397403  0.45439934  0.40574766    -0.07100
N178        N  0.47344101  0.06777991  0.62183819    -0.25900
H179        H  0.43176577  0.08131821  0.41584804     0.06700
N180        N  0.09873560  0.48405872  0.40308171    -0.47100
H181        H  0.42567667  0.42746729  0.41370603     0.06700
C182        C  0.40497705  0.98197837  0.57168548     0.42400
C183        C  0.04577688  0.41617209  0.40322541    -0.06600
Co184      Co  0.47146634  0.44816968  0.66371906     0.73800
N185        N  0.41169570  0.01077239  0.40447984    -0.46800
C186        C  0.10804752  0.00461978  0.57048972     0.42700
N187        N  0.49567748  0.40780160  0.59026686    -0.46800
Co188      Co  0.45210184  0.03526057  0.66518576     0.73900
C189        C  0.45876749  0.08381795  0.59096508    -0.07100
C190        C  0.09413882  0.03482263  0.40507973    -0.06700
N191        N  0.03189458  0.43457211  0.61975428    -0.26200
N192        N  0.03061252  0.09241917  0.40490000    -0.47000
H193        H  0.09672930  0.06206541  0.58225138     0.06700
C194        C  0.42351876  0.45508256  0.58975699    -0.07100
Cl195      Cl  0.00576650  0.00130982  0.66448371    -0.50100
C196        C  0.40577040  0.98168933  0.42508837     0.42400
H197        H  0.07275606  0.41798508  0.58018207     0.06700
N198        N  0.41123405  0.01111037  0.59251442    -0.46800
C199        C  0.48912515  0.23648769  0.52843463    -0.13500
C200        C  0.01307401  0.21529490  0.49917316     0.08600
C201        C  0.03237745  0.23273611  0.47014539    -0.13500
C202        C  0.03356722  0.26885299  0.46957102    -0.13500
C203        C  0.01544501  0.28849492  0.49799923     0.08600
C204        C  0.49413954  0.27235793  0.52786418    -0.13500
H205        H  0.47323730  0.22569522  0.55168358     0.12600
H206        H  0.04689337  0.21847152  0.44801427     0.12600
H207        H  0.04900588  0.28137627  0.44707747     0.12600
H208        H  0.48189602  0.28779336  0.55073208     0.12600
C209        C  0.24039506  0.01246052  0.47047530    -0.13500
C210        C  0.21917393  0.49993638  0.49730557     0.08600
C211        C  0.23535654  0.47794036  0.52448810    -0.13500
C212        C  0.27139212  0.47437917  0.52478647    -0.13500
C213        C  0.29221090  0.49272375  0.49792456     0.08600
C214        C  0.27647112  0.00998220  0.47091096    -0.13500
H215        H  0.22838652  0.02996413  0.44983679     0.12600
H216        H  0.22010246  0.46310012  0.54524351     0.12600
H217        H  0.28295947  0.45682715  0.54569844     0.12600
H218        H  0.29133620  0.02558843  0.45053177     0.12600
C219        C  0.18084145  0.50432575  0.83068995     0.03000
C220        C  0.16248053  0.50629036  0.79485057    -0.13200
C221        C  0.12744862  0.00272812  0.79451141     0.00500
C222        C  0.10949932  0.00543581  0.83043835    -0.11700
C223        C  0.12722931  0.00295556  0.86630519     0.03000
C224        C  0.16235218  0.50690835  0.86658937    -0.11100
H225        H  0.17598474  0.50325362  0.76690761     0.08500
H226        H  0.08168845  0.00884214  0.83048196     0.06100
H227        H  0.17581177  0.50505342  0.89451889     0.05900
C228        C  0.33058111  0.48863092  0.83140687     0.03000
C229        C  0.34929057  0.48657881  0.79561957    -0.13200
C230        C  0.38637197  0.98052791  0.79577273     0.00500
C231        C  0.40403403  0.97826024  0.83171265    -0.11700
C232        C  0.38591324  0.98076020  0.86756497     0.03000
C233        C  0.34882569  0.48695526  0.86733377    -0.11100
H234        H  0.33595151  0.48847111  0.76761845     0.08500
H235        H  0.43197553  0.97617787  0.83178674     0.06100
H236        H  0.33517173  0.48987983  0.89519737     0.05900
C237        C  0.01060946  0.17685295  0.83244066     0.03000
C238        C  0.00860654  0.15823535  0.79656548    -0.13200
C239        C  0.00440741  0.12227282  0.79657255     0.00500
C240        C  0.00194322  0.10461364  0.83244714    -0.11700
C241        C  0.00460358  0.12262269  0.86830481     0.03000
C242        C  0.00918875  0.15851944  0.86828626    -0.11100
H243        H  0.00941392  0.17165391  0.76857544     0.08500
H244        H  0.99856593  0.07682351  0.83245860     0.06100
H245        H  0.01154810  0.17207336  0.89627015     0.05900
C246        C  0.01603903  0.32698170  0.83034069     0.03000
C247        C  0.01586795  0.34468367  0.79405067    -0.13200
C248        C  0.01664922  0.38086217  0.79322755     0.00500
C249        C  0.01732869  0.39969309  0.82866139    -0.11700
C250        C  0.01676973  0.38250803  0.86490719     0.03000
C251        C  0.01635663  0.34635932  0.86574577    -0.11100
H252        H  0.01481193  0.33046189  0.76639231     0.08500
H253        H  0.01777201  0.42767410  0.82802454     0.06100
H254        H  0.01678085  0.33346096  0.89406285     0.05900
C255        C  0.01656498  0.39915035  0.75541941     0.42300
N256        N  0.50438282  0.42756322  0.70629466     0.01200
C257        C  0.09388267  0.03516859  0.92331285    -0.06700
H258        H  0.09701775  0.06170750  0.74653524     0.06700
C259        C  0.45869995  0.08292987  0.74074496    -0.07000
Co260      Co  0.05587408  0.46403811  0.99695995     0.74200
N261        N  0.07606268  0.02253644  0.70761220    -0.26200
Co262      Co  0.04783172  0.04882354  0.99813632     0.74100
C263        C  0.00279315  0.10303836  0.75911411     0.42400
N264        N  0.43230246  0.00200625  0.70803965     0.00800
N265        N  0.01857270  0.07354642  0.70850977     0.00900
N266        N  0.09865943  0.48492977  0.92476110    -0.47100
H267        H  0.07285475  0.41552725  0.74426439     0.06700
N268        N  0.07859411  0.49472125  0.70733457     0.01200
N269        N  0.01856223  0.07391611  0.95547913     0.00900
C270        C  0.00288463  0.10380429  0.90575923     0.42500
N271        N  0.43946883  0.46931002  0.70787081    -0.25700
C272        C  0.04569070  0.41842933  0.92156974    -0.06600
N273        N  0.49559987  0.40608407  0.73502855    -0.46800
N274        N  0.03066081  0.09295888  0.92609173    -0.47000
C275        C  0.01639910  0.40233734  0.90195001     0.42300
N276        N  0.07863461  0.49539613  0.95434218     0.01200
N277        N  0.43933613  0.46988571  0.95416298    -0.25700
N278        N  0.03193563  0.43343822  0.70626445    -0.26200
N279        N  0.43215235  0.00233421  0.95503223     0.00800
H280        H  0.42512581  0.42816982  0.91461864     0.06700
H281        H  0.43185752  0.08223740  0.91600161     0.06700
N282        N  0.07597812  0.02282751  0.95426055    -0.26200
N283        N  0.47342618  0.06726122  0.70926716    -0.25900
N284        N  0.50443375  0.42857203  0.95321765     0.01200
C285        C  0.10846425  0.00427556  0.75708111     0.42400
C286        C  0.42397391  0.45439936  0.73908089    -0.07100
N287        N  0.47344103  0.06777997  0.95517151    -0.25900
H288        H  0.43176577  0.08131813  0.74918143     0.06700
N289        N  0.09873550  0.48405873  0.73641510    -0.47100
H290        H  0.42567651  0.42746727  0.74703929     0.06700
C291        C  0.40497707  0.98197845  0.90501882     0.42400
C292        C  0.04577693  0.41617215  0.73655869    -0.06600
Co293      Co  0.47146633  0.44816967  0.99705241     0.73800
N294        N  0.41169585  0.01077246  0.73781327    -0.46800
C295        C  0.10804755  0.00461977  0.90382307     0.42700
N296        N  0.49567758  0.40780150  0.92360018    -0.46800
Co297      Co  0.45210186  0.03526058  0.99851909     0.73900
C298        C  0.45876752  0.08381801  0.92429838    -0.07100
C299        C  0.09413878  0.03482251  0.73841316    -0.06700
N300        N  0.03189456  0.43457211  0.95308760    -0.26200
N301        N  0.03061246  0.09241925  0.73823327    -0.47000
H302        H  0.09672936  0.06206540  0.91558481     0.06700
C303        C  0.42351880  0.45508255  0.92309029    -0.07100
Cl304      Cl  0.00576648  0.00130979  0.99781716    -0.50100
C305        C  0.40577048  0.98168936  0.75842173     0.42400
H306        H  0.07275602  0.41798521  0.91351533     0.06700
N307        N  0.41123413  0.01111045  0.92584773    -0.46800
C308        C  0.48912507  0.23648769  0.86176797    -0.13500
C309        C  0.01307409  0.21529489  0.83250661     0.08600
C310        C  0.03237757  0.23273609  0.80347883    -0.13500
C311        C  0.03356728  0.26885298  0.80290447    -0.13500
C312        C  0.01544502  0.28849492  0.83133260     0.08600
C313        C  0.49413944  0.27235793  0.86119748    -0.13500
H314        H  0.47323724  0.22569523  0.88501698     0.12600
H315        H  0.04689349  0.21847152  0.78134778     0.12600
H316        H  0.04900597  0.28137626  0.78041090     0.12600
H317        H  0.48189594  0.28779337  0.88406541     0.12600
C318        C  0.24039503  0.01246061  0.80380869    -0.13500
C319        C  0.21917392  0.49993624  0.83063889     0.08600
C320        C  0.23535653  0.47794028  0.85782143    -0.13500
C321        C  0.27139208  0.47437911  0.85811984    -0.13500
C322        C  0.29221086  0.49272371  0.83125793     0.08600
C323        C  0.27647109  0.00998226  0.80424435    -0.13500
H324        H  0.22838649  0.02996424  0.78317021     0.12600
H325        H  0.22010243  0.46310001  0.87857689     0.12600
H326        H  0.28295941  0.45682707  0.87903181     0.12600
H327        H  0.29133620  0.02558844  0.78386513     0.12600
C328        C  0.18173057  0.99648303  0.16366423     0.03000
C329        C  0.16342704  0.99832186  0.12780926    -0.13200
C330        C  0.12663586  0.51193686  0.12820133     0.00500
C331        C  0.10889687  0.51576741  0.16416657    -0.11700
C332        C  0.12655559  0.51274218  0.20004576     0.03000
C333        C  0.16318133  0.99837282  0.19955942    -0.11100
H334        H  0.17708265  0.99621827  0.09985316     0.08500
H335        H  0.08116010  0.51972186  0.16424255     0.06100
H336        H  0.17671472  0.99709424  0.22749055     0.05900
C337        C  0.33158008  0.98532803  0.16478349     0.03000
C338        C  0.35032378  0.98409777  0.12901942    -0.13200
C339        C  0.38519943  0.48145977  0.12899673     0.00500
C340        C  0.40274278  0.47853769  0.16496721    -0.11700
C341        C  0.38478179  0.48203379  0.20084244     0.03000
C342        C  0.34980166  0.98414571  0.20073084    -0.11100
H343        H  0.33691745  0.98545085  0.10101166     0.08500
H344        H  0.43058268  0.47539292  0.16503941     0.06100
H345        H  0.33600663  0.98632214  0.22859041     0.05900
C346        C  0.99793494  0.67624448  0.16574236     0.03000
C347        C  0.99668296  0.65740184  0.13006261    -0.13200
C348        C  0.99377824  0.62138026  0.13039391     0.00500
C349        C  0.99187375  0.60384665  0.16636791    -0.11700
C350        C  0.99390735  0.62219893  0.20204394     0.03000
C351        C  0.99703379  0.65821846  0.20174519    -0.11100
H352        H  0.99733890  0.67067125  0.10196540     0.08500
H353        H  0.98978101  0.57593220  0.16659704     0.06100
H354        H  0.99895241  0.67209278  0.22957801     0.05900
C355        C  0.00441001  0.82590140  0.16361269     0.03000
C356        C  0.00513459  0.84391052  0.12755976    -0.13200
C357        C  0.00745316  0.88001702  0.12722024     0.00500
C358        C  0.00879256  0.89842473  0.16292024    -0.11700
C359        C  0.00757699  0.88087317  0.19892901     0.03000
C360        C  0.00550959  0.84479476  0.19928077    -0.11100
H361        H  0.00378060  0.82996088  0.09973269     0.08500
H362        H  0.01061270  0.92635605  0.16267733     0.06100
H363        H  0.00545183  0.83151518  0.22738056     0.05900
C364        C  0.00887213  0.89859740  0.08962811     0.42300
N365        N  0.50485121  0.92694356  0.03995459     0.01200
C366        C  0.09037003  0.54274404  0.25679707    -0.06700
H367        H  0.09111787  0.56882884  0.08091737     0.06700
C368        C  0.45767995  0.58293918  0.07418737    -0.07000
Co369      Co  0.05331250  0.95944889  0.33039513     0.74200
N370        N  0.07346561  0.52841987  0.04143862    -0.26200
Co371      Co  0.04318655  0.55251080  0.33185137     0.74100
C372        C  0.99377474  0.60199519  0.09313282     0.42400
N373        N  0.43145670  0.50246599  0.04125828     0.00800
N374        N  0.01192157  0.57450380  0.04221160     0.00900
N375        N  0.09720700  0.97682525  0.25754018    -0.47100
H376        H  0.06633928  0.91016602  0.07834352     0.06700
N377        N  0.07838087  0.98852339  0.04051593     0.01200
N378        N  0.01190231  0.57522774  0.28928956     0.00900
C379        C  0.99375269  0.60360047  0.23957157     0.42500
N380        N  0.44022696  0.96882492  0.04125389    -0.25700
C381        C  0.03944083  0.91406034  0.25558527    -0.06600
N382        N  0.49595418  0.90556000  0.06872423    -0.46800
N383        N  0.02236837  0.59515590  0.25988874    -0.47000
C384        C  0.00889646  0.90022590  0.23621870     0.42300
N385        N  0.07830426  0.98881517  0.28736468     0.01200
N386        N  0.44003465  0.96914574  0.28779337    -0.25700
N387        N  0.02706698  0.93106863  0.04006711    -0.26200
N388        N  0.43131573  0.50302855  0.28835809     0.00800
H389        H  0.42582411  0.92720169  0.24858479     0.06700
H390        H  0.43089991  0.58240292  0.24986091     0.06700
N391        N  0.07347589  0.52908117  0.28780371    -0.26200
N392        N  0.47258099  0.56751475  0.04270601    -0.25900
N393        N  0.50477613  0.92754560  0.28701795     0.01200
C394        C  0.10739606  0.51244773  0.09078724     0.42400
C395        C  0.42478837  0.95383103  0.07238934    -0.07100
N396        N  0.47266399  0.56822987  0.28886665    -0.25900
H397        H  0.43071231  0.58123970  0.08245507     0.06700
N398        N  0.09747322  0.97647642  0.06980020    -0.47100
H399        H  0.42645582  0.92686931  0.08023167     0.06700
C400        C  0.40397085  0.48294024  0.23829316     0.42400
C401        C  0.03941752  0.91296524  0.07058010    -0.06600
Co402      Co  0.47203789  0.94749381  0.33067492     0.73800
N403        N  0.41071977  0.51127418  0.07089085    -0.46800
C404        C  0.10723397  0.51338633  0.23756196     0.42700
N405        N  0.49583434  0.90661048  0.25764637    -0.46800
Co406      Co  0.45132792  0.53571849  0.33193715     0.73900
C407        C  0.45782227  0.58412639  0.25806698    -0.07100
C408        C  0.09044497  0.54186807  0.07248813    -0.06700
N409        N  0.02705337  0.93160977  0.28687196    -0.26200
N410        N  0.02238172  0.59399041  0.07217201    -0.47000
H411        H  0.09100377  0.56975399  0.24895705     0.06700
C412        C  0.42426664  0.95417153  0.25682527    -0.07100
Cl413      Cl  0.00501681  0.50186855  0.33120200    -0.50100
C414        C  0.40474019  0.48228918  0.09162817     0.42400
H415        H  0.06636662  0.91135311  0.24748966     0.06700
N416        N  0.41020506  0.51192228  0.25939875    -0.46800
C417        C  0.48471078  0.73658791  0.19388130    -0.13500
C418        C  0.99992071  0.71456719  0.16537743     0.08600
C419        C  0.02019271  0.73176189  0.13706731    -0.13500
C420        C  0.02161232  0.76781233  0.13643765    -0.13500
C421        C  0.00278441  0.78754421  0.16411943     0.08600
C422        C  0.49002074  0.77239893  0.19330127    -0.13500
H423        H  0.46791601  0.72593196  0.21638540     0.12600
H424        H  0.03541352  0.71733630  0.11570216     0.12600
H425        H  0.03791904  0.78022750  0.11466833     0.12600
H426        H  0.47710742  0.78813296  0.21541757     0.12600
C427        C  0.23999041  0.51823910  0.13708127    -0.13500
C428        C  0.22009892  0.99322220  0.16366091     0.08600
C429        C  0.23679733  0.97136151  0.19055673    -0.13500
C430        C  0.27289363  0.96887696  0.19098805    -0.13500
C431        C  0.29318283  0.98818453  0.16452506     0.08600
C432        C  0.27601593  0.51468847  0.13738785    -0.13500
H433        H  0.22843680  0.53583477  0.11620785     0.12600
H434        H  0.22190590  0.95583855  0.21099573     0.12600
H435        H  0.28493690  0.95144384  0.21167916     0.12600
H436        H  0.29125460  0.52959570  0.11668312     0.12600
C437        C  0.18173059  0.99648308  0.49699763     0.03000
C438        C  0.16342709  0.99832191  0.46114262    -0.13200
C439        C  0.12663584  0.51193694  0.46153465     0.00500
C440        C  0.10889681  0.51576745  0.49749985    -0.11700
C441        C  0.12655549  0.51274226  0.53337906     0.03000
C442        C  0.16318134  0.99837285  0.53289279    -0.11100
H443        H  0.17708271  0.99621830  0.43318661     0.08500
H444        H  0.08115999  0.51972186  0.49757579     0.06100
H445        H  0.17671477  0.99709430  0.56082400     0.05900
C446        C  0.33158006  0.98532800  0.49811684     0.03000
C447        C  0.35032374  0.98409770  0.46235277    -0.13200
C448        C  0.38519948  0.48145963  0.46233010     0.00500
C449        C  0.40274283  0.47853754  0.49830059    -0.11700
C450        C  0.38478183  0.48203381  0.53417580     0.03000
C451        C  0.34980163  0.98414563  0.53406420    -0.11100
H452        H  0.33691740  0.98545068  0.43434500     0.08500
H453        H  0.43058270  0.47539273  0.49837284     0.06100
H454        H  0.33600664  0.98632200  0.56192379     0.05900
C455        C  0.99793506  0.67624449  0.49907572     0.03000
C456        C  0.99668302  0.65740185  0.46339598    -0.13200
C457        C  0.99377821  0.62138031  0.46372725     0.00500
C458        C  0.99187377  0.60384667  0.49970124    -0.11700
C459        C  0.99390733  0.62219896  0.53537727     0.03000
C460        C  0.99703388  0.65821846  0.53507853    -0.11100
H461        H  0.99733894  0.67067128  0.43529877     0.08500
H462        H  0.98978107  0.57593227  0.49993035     0.06100
H463        H  0.99895253  0.67209280  0.56291140     0.05900
C464        C  0.00441006  0.82590135  0.49694598     0.03000
C465        C  0.00513456  0.84391049  0.46089305    -0.13200
C466        C  0.00745311  0.88001699  0.46055358     0.00500
C467        C  0.00879246  0.89842469  0.49625359    -0.11700
C468        C  0.00757692  0.88087313  0.53226235     0.03000
C469        C  0.00550966  0.84479470  0.53261410    -0.11100
H470        H  0.00378054  0.82996089  0.43306598     0.08500
H471        H  0.01061257  0.92635598  0.49601069     0.06100
H472        H  0.00545195  0.83151511  0.56071387     0.05900
C473        C  0.00887217  0.89859743  0.42296150     0.42300
N474        N  0.50485127  0.92694357  0.37328796     0.01200
C475        C  0.09036993  0.54274410  0.59013038    -0.06700
H476        H  0.09111775  0.56882887  0.41425074     0.06700
C477        C  0.45767996  0.58293894  0.40752078    -0.07000
Co478      Co  0.05331247  0.95944888  0.66372847     0.74200
N479        N  0.07346556  0.52841985  0.37477200    -0.26200
Co480      Co  0.04318657  0.55251087  0.66518468     0.74100
C481        C  0.99377464  0.60199528  0.42646614     0.42400
N482        N  0.43145667  0.50246597  0.37459159     0.00800
N483        N  0.01192150  0.57450380  0.37554496     0.00900
N484        N  0.09720700  0.97682529  0.59087361    -0.47100
H485        H  0.06633933  0.91016592  0.41167694     0.06700
N486        N  0.07838091  0.98852343  0.37384924     0.01200
N487        N  0.01190227  0.57522774  0.62262283     0.00900
C488        C  0.99375264  0.60360047  0.57290486     0.42500
N489        N  0.44022698  0.96882491  0.37458728    -0.25700
C490        C  0.03944080  0.91406034  0.58891858    -0.06600
N491        N  0.49595428  0.90556001  0.40205760    -0.46800
N492        N  0.02236833  0.59515586  0.59322195    -0.47000
C493        C  0.00889639  0.90022591  0.56955201     0.42300
N494        N  0.07830427  0.98881520  0.62069809     0.01200
N495        N  0.44003460  0.96914575  0.62112677    -0.25700
N496        N  0.02706707  0.93106869  0.37340055    -0.26200
N497        N  0.43131581  0.50302858  0.62169140     0.00800
H498        H  0.42582404  0.92720164  0.58191835     0.06700
H499        H  0.43089993  0.58240274  0.58319426     0.06700
N500        N  0.07347587  0.52908123  0.62113705    -0.26200
N501        N  0.47258103  0.56751465  0.37603934    -0.25900
N502        N  0.50477611  0.92754557  0.62035131     0.01200
C503        C  0.10739612  0.51244782  0.42412053     0.42400
C504        C  0.42478840  0.95383103  0.40572276    -0.07100
N505        N  0.47266402  0.56822973  0.62219997    -0.25900
H506        H  0.43071237  0.58123937  0.41578845     0.06700
N507        N  0.09747327  0.97647649  0.40313353    -0.47100
H508        H  0.42645590  0.92686935  0.41356516     0.06700
C509        C  0.40397087  0.48294030  0.57162652     0.42400
C510        C  0.03941759  0.91296526  0.40391354    -0.06600
Co511      Co  0.47203787  0.94749384  0.66400826     0.73800
N512        N  0.41071965  0.51127409  0.40422413    -0.46800
C513        C  0.10723384  0.51338640  0.57089523     0.42700
N514        N  0.49583436  0.90661037  0.59097982    -0.46800
Co515      Co  0.45132794  0.53571846  0.66527047     0.73900
C516        C  0.45782232  0.58412624  0.59140032    -0.07100
C517        C  0.09044489  0.54186811  0.40582150    -0.06700
N518        N  0.02705335  0.93160977  0.62020529    -0.26200
N519        N  0.02238164  0.59399045  0.40550535    -0.47000
H520        H  0.09100357  0.56975409  0.58229034     0.06700
C521        C  0.42426655  0.95417149  0.59015872    -0.07100
Cl522      Cl  0.00501684  0.50186858  0.66453531    -0.50100
C523        C  0.40474024  0.48228909  0.42496152     0.42400
H524        H  0.06636653  0.91135313  0.58082292     0.06700
N525        N  0.41020514  0.51192234  0.59273207    -0.46800
C526        C  0.48471074  0.73658783  0.52721454    -0.13500
C527        C  0.99992077  0.71456718  0.49871073     0.08600
C528        C  0.02019277  0.73176188  0.47040064    -0.13500
C529        C  0.02161238  0.76781231  0.46977093    -0.13500
C530        C  0.00278445  0.78754418  0.49745271     0.08600
C531        C  0.49002070  0.77239887  0.52663455    -0.13500
H532        H  0.46791594  0.72593186  0.54971863     0.12600
H533        H  0.03541364  0.71733626  0.44903549     0.12600
H534        H  0.03791912  0.78022750  0.44800164     0.12600
H535        H  0.47710736  0.78813291  0.54875082     0.12600
C536        C  0.23999042  0.51823912  0.47041462    -0.13500
C537        C  0.22009893  0.99322217  0.49699423     0.08600
C538        C  0.23679733  0.97136145  0.52389000    -0.13500
C539        C  0.27289363  0.96887695  0.52432137    -0.13500
C540        C  0.29318283  0.98818452  0.49785837     0.08600
C541        C  0.27601596  0.51468859  0.47072124    -0.13500
H542        H  0.22843680  0.53583475  0.44954109     0.12600
H543        H  0.22190589  0.95583847  0.54432898     0.12600
H544        H  0.28493688  0.95144388  0.54501251     0.12600
H545        H  0.29125462  0.52959580  0.45001654     0.12600
C546        C  0.18173056  0.99648309  0.83033093     0.03000
C547        C  0.16342703  0.99832176  0.79447596    -0.13200
C548        C  0.12663585  0.51193689  0.79486803     0.00500
C549        C  0.10889690  0.51576749  0.83083326    -0.11700
C550        C  0.12655558  0.51274225  0.86671244     0.03000
C551        C  0.16318133  0.99837292  0.86622611    -0.11100
H552        H  0.17708262  0.99621807  0.76651992     0.08500
H553        H  0.08116008  0.51972194  0.83090923     0.06100
H554        H  0.17671477  0.99709440  0.89415723     0.05900
C555        C  0.33158007  0.98532805  0.83145015     0.03000
C556        C  0.35032375  0.98409773  0.79568608    -0.13200
C557        C  0.38519944  0.48145969  0.79566337     0.00500
C558        C  0.40274280  0.47853763  0.83163385    -0.11700
C559        C  0.38478183  0.48203379  0.86750908     0.03000
C560        C  0.34980165  0.98414569  0.86739751    -0.11100
H561        H  0.33691740  0.98545078  0.76767833     0.08500
H562        H  0.43058271  0.47539284  0.83170607     0.06100
H563        H  0.33600664  0.98632206  0.89525703     0.05900
C564        C  0.99793500  0.67624447  0.83240901     0.03000
C565        C  0.99668299  0.65740183  0.79672927    -0.13200
C566        C  0.99377820  0.62138027  0.79706058     0.00500
C567        C  0.99187377  0.60384664  0.83303458    -0.11700
C568        C  0.99390734  0.62219893  0.86871061     0.03000
C569        C  0.99703382  0.65821846  0.86841184    -0.11100
H570        H  0.99733893  0.67067123  0.76863207     0.08500
H571        H  0.98978103  0.57593222  0.83326372     0.06100
H572        H  0.99895245  0.67209281  0.89624468     0.05900
C573        C  0.00440998  0.82590135  0.83027932     0.03000
C574        C  0.00513448  0.84391049  0.79422637    -0.13200
C575        C  0.00745314  0.88001700  0.79388691     0.00500
C576        C  0.00879260  0.89842468  0.82958693    -0.11700
C577        C  0.00757702  0.88087311  0.86559570     0.03000
C578        C  0.00550962  0.84479469  0.86594743    -0.11100
H579        H  0.00378039  0.82996089  0.76639934     0.08500
H580        H  0.01061276  0.92635597  0.82934402     0.06100
H581        H  0.00545188  0.83151510  0.89404719     0.05900
C582        C  0.00887214  0.89859744  0.75629481     0.42300
N583        N  0.50485123  0.92694360  0.70662128     0.01200
C584        C  0.09036990  0.54274412  0.92346364    -0.06700
H585        H  0.09111787  0.56882889  0.74758421     0.06700
C586        C  0.45767994  0.58293903  0.74085405    -0.07000
Co587      Co  0.05331245  0.95944889  0.99706179     0.74200
N588        N  0.07346560  0.52841994  0.70810535    -0.26200
Co589      Co  0.04318660  0.55251084  0.99851799     0.74100
C590        C  0.99377468  0.60199524  0.75979947     0.42400
N591        N  0.43145667  0.50246596  0.70792488     0.00800
N592        N  0.01192153  0.57450387  0.70887824     0.00900
N593        N  0.09720699  0.97682527  0.92420687    -0.47100
H594        H  0.06633929  0.91016594  0.74501021     0.06700
N595        N  0.07838088  0.98852334  0.70718264     0.01200
N596        N  0.01190236  0.57522772  0.95595619     0.00900
C597        C  0.99375270  0.60360045  0.90623823     0.42500
N598        N  0.44022701  0.96882496  0.70792062    -0.25700
C599        C  0.03944086  0.91406033  0.92225198    -0.06600
N600        N  0.49595420  0.90556014  0.73539099    -0.46800
N601        N  0.02236840  0.59515581  0.92655531    -0.47000
C602        C  0.00889649  0.90022584  0.90288540     0.42300
N603        N  0.07830426  0.98881519  0.95403139     0.01200
N604        N  0.44003459  0.96914579  0.95446012    -0.25700
N605        N  0.02706702  0.93106866  0.70673382    -0.26200
N606        N  0.43131577  0.50302858  0.95502477     0.00800
H607        H  0.42582398  0.92720168  0.91525176     0.06700
H608        H  0.43089993  0.58240285  0.91652767     0.06700
N609        N  0.07347585  0.52908123  0.95447035    -0.26200
N610        N  0.47258099  0.56751464  0.70937268    -0.25900
N611        N  0.50477612  0.92754559  0.95368462     0.01200
C612        C  0.10739605  0.51244779  0.75745396     0.42400
C613        C  0.42478844  0.95383108  0.73905609    -0.07100
N614        N  0.47266403  0.56822980  0.95553334    -0.25900
H615        H  0.43071230  0.58123954  0.74912174     0.06700
N616        N  0.09747322  0.97647636  0.73646692    -0.47100
H617        H  0.42645591  0.92686937  0.74689845     0.06700
C618        C  0.40397087  0.48294027  0.90495983     0.42400
C619        C  0.03941756  0.91296524  0.73724680    -0.06600
Co620      Co  0.47203785  0.94749383  0.99734157     0.73800
N621        N  0.41071969  0.51127412  0.73755743    -0.46800
C622        C  0.10723390  0.51338639  0.90422860     0.42700
N623        N  0.49583435  0.90661040  0.92431313    -0.46800
Co624      Co  0.45132796  0.53571849  0.99860385     0.73900
C625        C  0.45782229  0.58412632  0.92473369    -0.07100
C626        C  0.09044495  0.54186812  0.73915488    -0.06700
N627        N  0.02705336  0.93160982  0.95353862    -0.26200
N628        N  0.02238167  0.59399047  0.73883866    -0.47000
H629        H  0.09100353  0.56975405  0.91562356     0.06700
C630        C  0.42426652  0.95417155  0.92349210    -0.07100
Cl631      Cl  0.00501681  0.50186862  0.99786859    -0.50100
C632        C  0.40474018  0.48228912  0.75829477     0.42400
H633        H  0.06636663  0.91135311  0.91415639     0.06700
N634        N  0.41020512  0.51192231  0.92606542    -0.46800
C635        C  0.48471075  0.73658782  0.86054794    -0.13500
C636        C  0.99992076  0.71456716  0.83204402     0.08600
C637        C  0.02019271  0.73176187  0.80373389    -0.13500
C638        C  0.02161232  0.76781231  0.80310421    -0.13500
C639        C  0.00278442  0.78754417  0.83078603     0.08600
C640        C  0.49002071  0.77239885  0.85996789    -0.13500
H641        H  0.46791606  0.72593186  0.88305202     0.12600
H642        H  0.03541352  0.71733626  0.78236869     0.12600
H643        H  0.03791899  0.78022751  0.78133488     0.12600
H644        H  0.47710738  0.78813292  0.88208423     0.12600
C645        C  0.23999039  0.51823907  0.80374799    -0.13500
C646        C  0.22009889  0.99322222  0.83032757     0.08600
C647        C  0.23679729  0.97136145  0.85722330    -0.13500
C648        C  0.27289359  0.96887692  0.85765465    -0.13500
C649        C  0.29318281  0.98818456  0.83119172     0.08600
C650        C  0.27601593  0.51468859  0.80405465    -0.13500
H651        H  0.22843673  0.53583473  0.78287453     0.12600
H652        H  0.22190582  0.95583845  0.87766228     0.12600
H653        H  0.28493686  0.95144377  0.87834572     0.12600
H654        H  0.29125457  0.52959585  0.78334999     0.12600
C655        C  0.67952525  0.51533301  0.16420133     0.03000
C656        C  0.66115804  0.51704800  0.12837278    -0.13200
C657        C  0.62545284  0.02174675  0.12809895     0.00500
C658        C  0.60752282  0.02473412  0.16403818    -0.11700
C659        C  0.62526419  0.02216828  0.19990860     0.03000
C660        C  0.66099676  0.51756082  0.20008686    -0.11100
H661        H  0.67470197  0.51399179  0.10045518     0.08500
H662        H  0.57962241  0.02730522  0.16409066     0.06100
H663        H  0.67445819  0.51558184  0.22800510     0.05900
C664        C  0.82916444  0.49932532  0.16495020     0.03000
C665        C  0.84785541  0.49694741  0.12917074    -0.13200
C666        C  0.88439607  0.99940364  0.12932404     0.00500
C667        C  0.90205357  0.99727664  0.16527040    -0.11700
C668        C  0.88394818  0.99970313  0.20112302     0.03000
C669        C  0.84731926  0.49729964  0.20091366    -0.11100
H670        H  0.83452696  0.49885287  0.10116243     0.08500
H671        H  0.92991029  0.99426738  0.16534508     0.06100
H672        H  0.83363483  0.50016476  0.22876676     0.05900
C673        C  0.49698561  0.17670580  0.16563511     0.03000
C674        C  0.49355347  0.15795735  0.12988522    -0.13200
C675        C  0.48620330  0.12238453  0.12998951     0.00500
C676        C  0.48176498  0.10525932  0.16606323    -0.11700
C677        C  0.48651246  0.12296041  0.20193055     0.03000
C678        C  0.49427681  0.15845829  0.20158530    -0.11100
H679        H  0.49614583  0.17093719  0.10177116     0.08500
H680        H  0.47685304  0.07770185  0.16620520     0.06100
H681        H  0.49858834  0.17167884  0.22945127     0.05900
C682        C  0.51865914  0.32663478  0.16355314     0.03000
C683        C  0.52022835  0.34464820  0.12735351    -0.13200
C684        C  0.52543676  0.38060522  0.12662342     0.00500
C685        C  0.52884827  0.39893371  0.16227595    -0.11700
C686        C  0.52587140  0.38185171  0.19853558     0.03000
C687        C  0.52110722  0.34588269  0.19907303    -0.11100
H688        H  0.51686929  0.33090447  0.09964321     0.08500
H689        H  0.53194321  0.42674962  0.16181602     0.06100
H690        H  0.51957566  0.33302681  0.22735735     0.05900
C691        C  0.52466324  0.39954514  0.08889551     0.42300
N692        N  0.99818853  0.42829177  0.03963918     0.01200
C693        C  0.58680697  0.04898958  0.25666473    -0.06700
H694        H  0.58534882  0.07541359  0.08071035     0.06700
C695        C  0.97221433  0.08880568  0.07340557    -0.07000
Co696      Co  0.55884366  0.46839153  0.33043618     0.74200
N697        N  0.57129448  0.03358418  0.04126403    -0.26200
Co698      Co  0.53935729  0.05528653  0.33168756     0.74100
C699        C  0.48669897  0.10247950  0.09261261     0.42400
N700        N  0.93330212  0.01374563  0.04164712     0.00800
N701        N  0.50659963  0.07529112  0.04197529     0.00900
N702        N  0.59965722  0.49301584  0.25830980    -0.47100
H703        H  0.57940997  0.42114865  0.07872621     0.06700
N704        N  0.57873889  0.50109012  0.04081369     0.01200
N705        N  0.50660475  0.07583738  0.28908407     0.00900
C706        C  0.48677684  0.10363684  0.23944048     0.42500
N707        N  0.93669668  0.47473752  0.04143957    -0.25700
C708        C  0.55257174  0.42124529  0.25474231    -0.06600
N709        N  0.98783668  0.40805515  0.06884815    -0.46800
N710        N  0.51562023  0.09718495  0.26034471    -0.47000
C711        C  0.52472471  0.40193119  0.23573892     0.42300
N712        N  0.57880556  0.50173875  0.28787012     0.01200
N713        N  0.93641286  0.47533240  0.28778825    -0.25700
N714        N  0.53753448  0.43568729  0.04006903    -0.26200
N715        N  0.93309849  0.01406535  0.28843503     0.00800
H716        H  0.91858057  0.43490820  0.24844999     0.06700
H717        H  0.94536390  0.09221474  0.25017050     0.06700
N718        N  0.57123800  0.03398982  0.28773599    -0.26200
N719        N  0.98452200  0.07109828  0.04214926    -0.25900
N720        N  0.99813061  0.42943389  0.28650518     0.01200
C721        C  0.60625041  0.02062496  0.09074743     0.42400
C722        C  0.91993689  0.46115035  0.07259188    -0.07100
N723        N  0.98451046  0.07148754  0.28876948    -0.25900
H724        H  0.94530614  0.09152276  0.08157700     0.06700
N725        N  0.59974190  0.49219904  0.06987841    -0.47100
H726        H  0.91931589  0.43415589  0.08049850     0.06700
C727        C  0.90285282  0.99824984  0.23864583     0.42400
C728        C  0.55245363  0.41951756  0.07064016    -0.06600
Co729      Co  0.96685132  0.45123632  0.33052239     0.73800
N730        N  0.91447854  0.02569185  0.07155687    -0.46800
C731        C  0.60591990  0.02113334  0.23735259     0.42700
N732        N  0.98773182  0.41019104  0.25627298    -0.46800
Co733      Co  0.95823524  0.04316041  0.33190408     0.73900
C734        C  0.97225931  0.08945477  0.25806905    -0.07100
C735        C  0.58695962  0.04847421  0.07235363    -0.06700
N736        N  0.53761124  0.43664842  0.28620851    -0.26200
N737        N  0.51556563  0.09632823  0.07124142    -0.47000
H738        H  0.58520944  0.07596438  0.24885894     0.06700
C739        C  0.91927748  0.46187093  0.25686585    -0.07100
Cl740      Cl  0.50568949  0.00139829  0.33115846    -0.50100
C741        C  0.90367819  0.99785245  0.09189221     0.42400
H742        H  0.57955954  0.42294789  0.24656330     0.06700
N743        N  0.91394840  0.02607635  0.25916483    -0.46800
C744        C  0.99529867  0.23496342  0.19450592    -0.13500
C745        C  0.50337757  0.21503412  0.16546571     0.08600
C746        C  0.52311234  0.23074872  0.13541452    -0.13500
C747        C  0.52814326  0.26666419  0.13485066    -0.13500
C748        C  0.51361591  0.28812569  0.16432897     0.08600
C749        C  0.99647074  0.27102387  0.19392002    -0.13500
H750        H  0.97963058  0.22252459  0.21685083     0.12600
H751        H  0.53518312  0.21527367  0.11245788     0.12600
H752        H  0.54389052  0.27753775  0.11152300     0.12600
H753        H  0.98169402  0.28521360  0.21588359     0.12600
C754        C  0.73850928  0.03246901  0.13750112    -0.13500
C755        C  0.71784474  0.51099314  0.16416589     0.08600
C756        C  0.73392789  0.48856777  0.19094753    -0.13500
C757        C  0.76993962  0.48491881  0.19124585    -0.13500
C758        C  0.79083395  0.50359911  0.16478154     0.08600
C759        C  0.77460342  0.02998260  0.13793767    -0.13500
H760        H  0.72647842  0.05003490  0.11694641     0.12600
H761        H  0.71860505  0.47345063  0.21137241     0.12600
H762        H  0.78143646  0.46702935  0.21183288     0.12600
H763        H  0.78950305  0.04563858  0.11763903     0.12600
C764        C  0.67952522  0.51533294  0.49753465     0.03000
C765        C  0.66115802  0.51704800  0.46170608    -0.13200
C766        C  0.62545281  0.02174679  0.46143228     0.00500
C767        C  0.60752279  0.02473413  0.49737151    -0.11700
C768        C  0.62526417  0.02216825  0.53324192     0.03000
C769        C  0.66099679  0.51756081  0.53342018    -0.11100
H770        H  0.67470189  0.51399184  0.43378853     0.08500
H771        H  0.57962237  0.02730528  0.49742401     0.06100
H772        H  0.67445823  0.51558184  0.56133846     0.05900
C773        C  0.82916441  0.49932531  0.49828355     0.03000
C774        C  0.84785537  0.49694732  0.46250409    -0.13200
C775        C  0.88439611  0.99940360  0.46265738     0.00500
C776        C  0.90205362  0.99727670  0.49860376    -0.11700
C777        C  0.88394822  0.99970316  0.53445638     0.03000
C778        C  0.84731924  0.49729968  0.53424703    -0.11100
H779        H  0.83452691  0.49885269  0.43449578     0.08500
H780        H  0.92991033  0.99426745  0.49867845     0.06100
H781        H  0.83363484  0.50016487  0.56210012     0.05900
C782        C  0.49698561  0.17670579  0.49896846     0.03000
C783        C  0.49355339  0.15795735  0.46321855    -0.13200
C784        C  0.48620325  0.12238453  0.46332285     0.00500
C785        C  0.48176504  0.10525929  0.49939658    -0.11700
C786        C  0.48651252  0.12296040  0.53526390     0.03000
C787        C  0.49427681  0.15845827  0.53491863    -0.11100
H788        H  0.49614569  0.17093721  0.43510451     0.08500
H789        H  0.47685316  0.07770186  0.49953854     0.06100
H790        H  0.49858825  0.17167884  0.56278466     0.05900
C791        C  0.51865917  0.32663477  0.49688657     0.03000
C792        C  0.52022834  0.34464818  0.46068691    -0.13200
C793        C  0.52543672  0.38060520  0.45995678     0.00500
C794        C  0.52884819  0.39893372  0.49560927    -0.11700
C795        C  0.52587128  0.38185176  0.53186893     0.03000
C796        C  0.52110715  0.34588273  0.53240642    -0.11100
H797        H  0.51686922  0.33090448  0.43297666     0.08500
H798        H  0.53194309  0.42674963  0.49514930     0.06100
H799        H  0.51957553  0.33302686  0.56069081     0.05900
C800        C  0.52466326  0.39954506  0.42222881     0.42300
N801        N  0.99818857  0.42829178  0.37297247     0.01200
C802        C  0.58680689  0.04898960  0.58999797    -0.06700
H803        H  0.58534881  0.07541360  0.41404369     0.06700
C804        C  0.97221433  0.08880563  0.40673888    -0.07000
Co805      Co  0.55884364  0.46839151  0.66376948     0.74200
N806        N  0.57129449  0.03358419  0.37459740    -0.26200
Co807      Co  0.53935723  0.05528656  0.66502087     0.74100
C808        C  0.48669898  0.10247944  0.42594598     0.42400
N809        N  0.93330214  0.01374557  0.37498044     0.00800
N810        N  0.50659963  0.07529103  0.37530869     0.00900
N811        N  0.59965729  0.49301585  0.59164312    -0.47100
H812        H  0.57941001  0.42114858  0.41205967     0.06700
N813        N  0.57873887  0.50109017  0.37414702     0.01200
N814        N  0.50660469  0.07583746  0.62241748     0.00900
C815        C  0.48677683  0.10363684  0.57277384     0.42500
N816        N  0.93669672  0.47473752  0.37477300    -0.25700
C817        C  0.55257168  0.42124531  0.58807559    -0.06600
N818        N  0.98783667  0.40805517  0.40218144    -0.46800
N819        N  0.51562018  0.09718504  0.59367817    -0.47000
C820        C  0.52472461  0.40193127  0.56907221     0.42300
N821        N  0.57880556  0.50173872  0.62120339     0.01200
N822        N  0.93641289  0.47533244  0.62112160    -0.25700
N823        N  0.53753453  0.43568732  0.37340242    -0.26200
N824        N  0.93309863  0.01406537  0.62176834     0.00800
H825        H  0.91858068  0.43490825  0.58178332     0.06700
H826        H  0.94536392  0.09221456  0.58350387     0.06700
N827        N  0.57123790  0.03398982  0.62106924    -0.26200
N828        N  0.98452201  0.07109827  0.37548257    -0.25900
N829        N  0.99813062  0.42943394  0.61983855     0.01200
C830        C  0.60625042  0.02062500  0.42408076     0.42400
C831        C  0.91993689  0.46115034  0.40592527    -0.07100
N832        N  0.98451054  0.07148750  0.62210283    -0.25900
H833        H  0.94530610  0.09152268  0.41491024     0.06700
N834        N  0.59974183  0.49219906  0.40321177    -0.47100
H835        H  0.91931573  0.43415586  0.41383178     0.06700
C836        C  0.90285290  0.99824987  0.57197918     0.42400
C837        C  0.55245367  0.41951751  0.40397353    -0.06600
Co838      Co  0.96685132  0.45123633  0.66385573     0.73800
N839        N  0.91447850  0.02569175  0.40489017    -0.46800
C840        C  0.60591990  0.02113335  0.57068592     0.42700
N841        N  0.98773184  0.41019107  0.58960636    -0.46800
Co842      Co  0.95823527  0.04316040  0.66523740     0.73900
C843        C  0.97225934  0.08945467  0.59140238    -0.07100
C844        C  0.58695963  0.04847424  0.40568697    -0.06700
N845        N  0.53761123  0.43664838  0.61954185    -0.26200
N846        N  0.51556565  0.09632813  0.40457484    -0.47000
H847        H  0.58520939  0.07596437  0.58219219     0.06700
C848        C  0.91927757  0.46187093  0.59019914    -0.07100
Cl849      Cl  0.50568947  0.00139831  0.66449174    -0.50100
C850        C  0.90367822  0.99785235  0.42522554     0.42400
H851        H  0.57955944  0.42294795  0.57989645     0.06700
N852        N  0.91394849  0.02607637  0.59249819    -0.46800
C853        C  0.99529857  0.23496346  0.52783925    -0.13500
C854        C  0.50337761  0.21503410  0.49879903     0.08600
C855        C  0.52311238  0.23074871  0.46874789    -0.13500
C856        C  0.52814331  0.26666417  0.46818400    -0.13500
C857        C  0.51361594  0.28812567  0.49766235     0.08600
C858        C  0.99647069  0.27102390  0.52725330    -0.13500
H859        H  0.97963046  0.22252468  0.55018416     0.12600
H860        H  0.53518320  0.21527360  0.44579125     0.12600
H861        H  0.54389054  0.27753773  0.44485636     0.12600
H862        H  0.98169394  0.28521369  0.54921685     0.12600
C863        C  0.73850929  0.03246905  0.47083438    -0.13500
C864        C  0.71784468  0.51099307  0.49749916     0.08600
C865        C  0.73392783  0.48856771  0.52428082    -0.13500
C866        C  0.76993956  0.48491875  0.52457912    -0.13500
C867        C  0.79083390  0.50359911  0.49811489     0.08600
C868        C  0.77460345  0.02998264  0.47127096    -0.13500
H869        H  0.72647843  0.05003491  0.45027965     0.12600
H870        H  0.71860497  0.47345062  0.54470573     0.12600
H871        H  0.78143640  0.46702922  0.54516614     0.12600
H872        H  0.78950308  0.04563858  0.45097232     0.12600
C873        C  0.67952523  0.51533293  0.83086797     0.03000
C874        C  0.66115801  0.51704802  0.79503940    -0.13200
C875        C  0.62545279  0.02174674  0.79476559     0.00500
C876        C  0.60752277  0.02473416  0.83070483    -0.11700
C877        C  0.62526419  0.02216820  0.86657522     0.03000
C878        C  0.66099678  0.51756073  0.86675351    -0.11100
H879        H  0.67470188  0.51399193  0.76712186     0.08500
H880        H  0.57962241  0.02730537  0.83075735     0.06100
H881        H  0.67445825  0.51558164  0.89467175     0.05900
C882        C  0.82916444  0.49932534  0.83161687     0.03000
C883        C  0.84785543  0.49694741  0.79583741    -0.13200
C884        C  0.88439612  0.99940369  0.79599073     0.00500
C885        C  0.90205360  0.99727676  0.83193710    -0.11700
C886        C  0.88394820  0.99970317  0.86778973     0.03000
C887        C  0.84731923  0.49729958  0.86758033    -0.11100
H888        H  0.83452700  0.49885282  0.76782910     0.08500
H889        H  0.92991036  0.99426751  0.83201179     0.06100
H890        H  0.83363475  0.50016467  0.89543346     0.05900
C891        C  0.49698554  0.17670577  0.83230177     0.03000
C892        C  0.49355330  0.15795736  0.79655185    -0.13200
C893        C  0.48620319  0.12238452  0.79665612     0.00500
C894        C  0.48176499  0.10525930  0.83272984    -0.11700
C895        C  0.48651255  0.12296036  0.86859717     0.03000
C896        C  0.49427684  0.15845823  0.86825192    -0.11100
H897        H  0.49614562  0.17093725  0.76843782     0.08500
H898        H  0.47685313  0.07770181  0.83287178     0.06100
H899        H  0.49858840  0.17167879  0.89611793     0.05900
C900        C  0.51865911  0.32663479  0.83021984     0.03000
C901        C  0.52022840  0.34464819  0.79402019    -0.13200
C902        C  0.52543672  0.38060523  0.79329009     0.00500
C903        C  0.52884813  0.39893375  0.82894256    -0.11700
C904        C  0.52587136  0.38185177  0.86520221     0.03000
C905        C  0.52110711  0.34588275  0.86573969    -0.11100
H906        H  0.51686940  0.33090448  0.76630994     0.08500
H907        H  0.53194295  0.42674968  0.82848257     0.06100
H908        H  0.51957546  0.33302690  0.89402409     0.05900
C909        C  0.52466325  0.39954511  0.75556215     0.42300
N910        N  0.99818855  0.42829178  0.70630583     0.01200
C911        C  0.58680700  0.04898949  0.92333131    -0.06700
H912        H  0.58534876  0.07541360  0.74737698     0.06700
C913        C  0.97221427  0.08880558  0.74007226    -0.07000
Co914      Co  0.55884368  0.46839148  0.99710283     0.74200
N915        N  0.57129442  0.03358420  0.70793070    -0.26200
Co916      Co  0.53935729  0.05528653  0.99835419     0.74100
C917        C  0.48669896  0.10247944  0.75927928     0.42400
N918        N  0.93330213  0.01374559  0.70831372     0.00800
N919        N  0.50659963  0.07529110  0.70864196     0.00900
N920        N  0.59965729  0.49301591  0.92497650    -0.47100
H921        H  0.57941002  0.42114864  0.74539293     0.06700
N922        N  0.57873885  0.50109012  0.70748036     0.01200
N923        N  0.50660473  0.07583744  0.95575077     0.00900
C924        C  0.48677689  0.10363680  0.90610709     0.42500
N925        N  0.93669669  0.47473752  0.70810631    -0.25700
C926        C  0.55257174  0.42124537  0.92140886    -0.06600
N927        N  0.98783671  0.40805519  0.73551484    -0.46800
N928        N  0.51562024  0.09718496  0.92701140    -0.47000
C929        C  0.52472471  0.40193127  0.90240549     0.42300
N930        N  0.57880557  0.50173876  0.95453681     0.01200
N931        N  0.93641291  0.47533246  0.95445486    -0.25700
N932        N  0.53753450  0.43568730  0.70673573    -0.26200
N933        N  0.93309852  0.01406533  0.95510173     0.00800
H934        H  0.91858059  0.43490829  0.91511662     0.06700
H935        H  0.94536385  0.09221472  0.91683737     0.06700
N936        N  0.57123800  0.03398973  0.95440257    -0.26200
N937        N  0.98452197  0.07109824  0.70881591    -0.25900
N938        N  0.99813061  0.42943386  0.95317191     0.01200
C939        C  0.60625038  0.02062499  0.75741405     0.42400
C940        C  0.91993687  0.46115032  0.73925863    -0.07100
N941        N  0.98451048  0.07148744  0.95543617    -0.25900
H942        H  0.94530605  0.09152260  0.74824365     0.06700
N943        N  0.59974188  0.49219903  0.73654501    -0.47100
H944        H  0.91931577  0.43415590  0.74716523     0.06700
C945        C  0.90285281  0.99824984  0.90531254     0.42400
C946        C  0.55245364  0.41951755  0.73730683    -0.06600
Co947      Co  0.96685132  0.45123633  0.99718904     0.73800
N948        N  0.91447857  0.02569179  0.73822348    -0.46800
C949        C  0.60591992  0.02113324  0.90401920     0.42700
N950        N  0.98773183  0.41019096  0.92293977    -0.46800
Co951      Co  0.95823524  0.04316040  0.99857077     0.73900
C952        C  0.97225926  0.08945472  0.92473581    -0.07100
C953        C  0.58695957  0.04847422  0.73902028    -0.06700
N954        N  0.53761126  0.43664837  0.95287515    -0.26200
N955        N  0.51556563  0.09632817  0.73790812    -0.47000
H956        H  0.58520953  0.07596426  0.91552550     0.06700
C957        C  0.91927751  0.46187097  0.92353246    -0.07100
Cl958      Cl  0.50568951  0.00139828  0.99782504    -0.50100
C959        C  0.90367823  0.99785241  0.75855886     0.42400
H960        H  0.57955953  0.42294808  0.91322976     0.06700
N961        N  0.91394837  0.02607633  0.92583159    -0.46800
C962        C  0.99529867  0.23496343  0.86117270    -0.13500
C963        C  0.50337752  0.21503409  0.83213237     0.08600
C964        C  0.52311226  0.23074869  0.80208121    -0.13500
C965        C  0.52814319  0.26666416  0.80151729    -0.13500
C966        C  0.51361583  0.28812568  0.83099563     0.08600
C967        C  0.99647066  0.27102389  0.86058666    -0.13500
H968        H  0.97963062  0.22252465  0.88351768     0.12600
H969        H  0.53518306  0.21527356  0.77912457     0.12600
H970        H  0.54389041  0.27753770  0.77818965     0.12600
H971        H  0.98169387  0.28521365  0.88255012     0.12600
C972        C  0.73850929  0.03246897  0.80416768    -0.13500
C973        C  0.71784473  0.51099306  0.83083244     0.08600
C974        C  0.73392790  0.48856764  0.85761405    -0.13500
C975        C  0.76993963  0.48491873  0.85791239    -0.13500
C976        C  0.79083395  0.50359912  0.83144818     0.08600
C977        C  0.77460344  0.02998262  0.80460434    -0.13500
H978        H  0.72647845  0.05003479  0.78361293     0.12600
H979        H  0.71860505  0.47345049  0.87803888     0.12600
H980        H  0.78143648  0.46702923  0.87849940     0.12600
H981        H  0.78950307  0.04563866  0.78430571     0.12600
C982        C  0.67983530  0.01630960  0.16391050     0.03000
C983        C  0.66148397  0.01766538  0.12807799    -0.13200
C984        C  0.62522830  0.52216455  0.12837844     0.00500
C985        C  0.60744393  0.52587781  0.16434882    -0.11700
C986        C  0.62512310  0.52290131  0.20023413     0.03000
C987        C  0.66126237  0.01791591  0.19978961    -0.11100
H988        H  0.67512697  0.01515666  0.10015261     0.08500
H989        H  0.57962022  0.52916473  0.16442480     0.06100
H990        H  0.67477509  0.01633936  0.22771215     0.05900
C991        C  0.82968992  0.00509720  0.16500961     0.03000
C992        C  0.84838883  0.00342038  0.12921823    -0.13200
C993        C  0.88367591  0.49122251  0.12928168     0.00500
C994        C  0.90114413  0.48819315  0.16528363    -0.11700
C995        C  0.88318287  0.49182819  0.20113167     0.03000
C996        C  0.84788532  0.00351709  0.20097191    -0.11100
H997        H  0.83493678  0.00446991  0.10121886     0.08500
H998        H  0.92889397  0.48433859  0.16540261     0.06100
H999        H  0.83408264  0.00539509  0.22885190     0.05900
C1000       C  0.49406074  0.67671347  0.16567989     0.03000
C1001       C  0.49108964  0.65783663  0.13003323    -0.13200
C1002       C  0.48470075  0.62213670  0.13032249     0.00500
C1003       C  0.48083453  0.60499179  0.16644374    -0.11700
C1004       C  0.48504034  0.62298717  0.20219858     0.03000
C1005       C  0.49167750  0.65866732  0.20172332    -0.11100
H1006       H  0.49344635  0.67082171  0.10188518     0.08500
H1007       H  0.47669814  0.57730765  0.16671284     0.06100
H1008       H  0.49550610  0.67219035  0.22950351     0.05900
C1009       C  0.51680451  0.82603966  0.16359015     0.03000
C1010       C  0.51918616  0.84410477  0.12751275    -0.13200
C1011       C  0.52544183  0.87989223  0.12702498     0.00500
C1012       C  0.52922719  0.89792282  0.16283554    -0.11700
C1013       C  0.52549616  0.88074661  0.19897006     0.03000
C1014       C  0.51948970  0.84497661  0.19924436    -0.11100
H1015       H  0.51564171  0.83051653  0.09972535     0.08500
H1016       H  0.53309503  0.92564330  0.16259029     0.06100
H1017       H  0.51725396  0.83197929  0.22739770     0.05900
C1018       C  0.52491811  0.89904105  0.08941259     0.42300
N1019       N  0.99301585  0.92866777  0.04013036     0.01200
C1020       C  0.58639786  0.54988766  0.25688367    -0.06700
H1021       H  0.58481440  0.57596523  0.08124570     0.06700
C1022       C  0.96443862  0.58567234  0.07384367    -0.07000
Co1023     Co  0.55928873  0.96755003  0.33042778     0.74200
N1024       N  0.57073606  0.53424331  0.04163587    -0.26200
Co1025     Co  0.53870154  0.55593141  0.33197843     0.74100
C1026       C  0.48558209  0.60226110  0.09305654     0.42400
N1027       N  0.93154984  0.50843852  0.04154293     0.00800
N1028       N  0.50575035  0.57558262  0.04228827     0.00900
N1029       N  0.59984211  0.99204990  0.25790883    -0.47100
H1030       H  0.57977028  0.92045806  0.07927021     0.06700
N1031       N  0.57923029  0.00041158  0.04057697     0.01200
N1032       N  0.50581141  0.57637638  0.28936241     0.00900
C1033       C  0.48568366  0.60391911  0.23975182     0.42500
N1034       N  0.93559362  0.97972747  0.04134356    -0.25700
C1035       C  0.55271168  0.92005429  0.25493430    -0.06600
N1036       N  0.98100112  0.90958385  0.06954017    -0.46800
N1037       N  0.51466984  0.59765244  0.26049440    -0.47000
C1038       C  0.52474559  0.90061716  0.23629392     0.42300
N1039       N  0.57913091  0.00080457  0.28759673     0.01200
N1040       N  0.93540009  0.98005315  0.28804452    -0.25700
N1041       N  0.53801643  0.93499557  0.04039725    -0.26200
N1042       N  0.93127348  0.50901767  0.28857806     0.00800
H1043       H  0.91432768  0.94083894  0.24926164     0.06700
H1044       H  0.93741327  0.58730413  0.25055349     0.06700
N1045       N  0.57079037  0.53488641  0.28796051    -0.26200
N1046       N  0.97817275  0.56934208  0.04241791    -0.25900
N1047       N  0.99299613  0.92924342  0.28703760     0.01200
C1048       C  0.60588388  0.52118217  0.09102857     0.42400
C1049       C  0.91772783  0.96732867  0.07227664    -0.07100
N1050       N  0.97815843  0.57001669  0.28920210    -0.25900
H1051       H  0.93739328  0.58615488  0.08198579     0.06700
N1052       N  0.60011982  0.99156736  0.06975004    -0.47100
H1053       H  0.91487964  0.94041713  0.07994120     0.06700
C1054       C  0.90221100  0.49127281  0.23867362     0.42400
C1055       C  0.55282477  0.91889184  0.07112282    -0.06600
Co1056     Co  0.96370751  0.95379378  0.33080433     0.73800
N1057       N  0.91166728  0.51897440  0.07122078    -0.46800
C1058       C  0.60572367  0.52205815  0.23769543     0.42700
N1059       N  0.98099758  0.91066995  0.25705642    -0.46800
Co1060     Co  0.95416998  0.53970905  0.33207827     0.73900
C1061       C  0.96444198  0.58682139  0.25849099    -0.07100
C1062       C  0.58643968  0.54905043  0.07278556    -0.06700
N1063       N  0.53794175  0.93561255  0.28641816    -0.26200
N1064       N  0.51457291  0.59638333  0.07181713    -0.47000
H1065       H  0.58471676  0.57684160  0.24900894     0.06700
C1066       C  0.91723201  0.96773405  0.25732822    -0.07100
Cl1067     Cl  0.50508521  0.50204614  0.33118534    -0.50100
C1068       C  0.90319363  0.49056385  0.09188421     0.42400
H1069       H  0.57964669  0.92172297  0.24652190     0.06700
N1070       N  0.91099399  0.51967030  0.25962175    -0.46800
C1071       C  0.98115613  0.73429746  0.19310176    -0.13500
C1072       C  0.50013632  0.71494218  0.16525558     0.08600
C1073       C  0.52110787  0.73025880  0.13608999    -0.13500
C1074       C  0.52642215  0.76608140  0.13551086    -0.13500
C1075       C  0.51094226  0.78774529  0.16409805     0.08600
C1076       C  0.98258194  0.77033087  0.19247815    -0.13500
H1077       H  0.96481066  0.72189433  0.21484513     0.12600
H1078       H  0.53398632  0.71450028  0.11396638     0.12600
H1079       H  0.54319940  0.77674121  0.11299567     0.12600
H1080       H  0.96733022  0.78473892  0.21382982     0.12600
C1081       C  0.73872236  0.52961903  0.13762934    -0.13500
C1082       C  0.71820822  0.01310050  0.16389500     0.08600
C1083       C  0.73489680  0.99107757  0.19061694    -0.13500
C1084       C  0.77098516  0.98858691  0.19104928    -0.13500
C1085       C  0.79129608  0.00804811  0.16476071     0.08600
C1086       C  0.77475130  0.52597151  0.13793039    -0.13500
H1087       H  0.72720151  0.54747961  0.11702606     0.12600
H1088       H  0.72000111  0.97541344  0.21090895     0.12600
H1089       H  0.78300479  0.97100455  0.21159161     0.12600
H1090       H  0.79008510  0.54106444  0.11749274     0.12600
C1091       C  0.67983527  0.01630958  0.49724377     0.03000
C1092       C  0.66148393  0.01766540  0.46141129    -0.13200
C1093       C  0.62522828  0.52216457  0.46171179     0.00500
C1094       C  0.60744393  0.52587787  0.49768219    -0.11700
C1095       C  0.62512316  0.52290137  0.53356750     0.03000
C1096       C  0.66126237  0.01791588  0.53312290    -0.11100
H1097       H  0.67512691  0.01515674  0.43348591     0.08500
H1098       H  0.57962023  0.52916482  0.49775823     0.06100
H1099       H  0.67477512  0.01633943  0.56104539     0.05900
C1100       C  0.82968993  0.00509712  0.49834291     0.03000
C1101       C  0.84838888  0.00342040  0.46255154    -0.13200
C1102       C  0.88367589  0.49122248  0.46261506     0.00500
C1103       C  0.90114411  0.48819317  0.49861700    -0.11700
C1104       C  0.88318286  0.49182817  0.53446502     0.03000
C1105       C  0.84788533  0.00351694  0.53430524    -0.11100
H1106       H  0.83493689  0.00447000  0.43455214     0.08500
H1107       H  0.92889396  0.48433866  0.49873600     0.06100
H1108       H  0.83408266  0.00539484  0.56218525     0.05900
C1109       C  0.49406081  0.67671338  0.49901316     0.03000
C1110       C  0.49108960  0.65783651  0.46336652    -0.13200
C1111       C  0.48470066  0.62213660  0.46365586     0.00500
C1112       C  0.48083441  0.60499171  0.49977715    -0.11700
C1113       C  0.48504032  0.62298713  0.53553196     0.03000
C1114       C  0.49167757  0.65866725  0.53505662    -0.11100
H1115       H  0.49344627  0.67082158  0.43521845     0.08500
H1116       H  0.47669799  0.57730762  0.50004629     0.06100
H1117       H  0.49550621  0.67219030  0.56283680     0.05900
C1118       C  0.51680459  0.82603960  0.49692355     0.03000
C1119       C  0.51918632  0.84410470  0.46084614    -0.13200
C1120       C  0.52544194  0.87989220  0.46035837     0.00500
C1121       C  0.52922717  0.89792276  0.49616894    -0.11700
C1122       C  0.52549616  0.88074655  0.53230346     0.03000
C1123       C  0.51948967  0.84497655  0.53257779    -0.11100
H1124       H  0.51564191  0.83051645  0.43305876     0.08500
H1125       H  0.53309489  0.92564331  0.49592371     0.06100
H1126       H  0.51725379  0.83197930  0.56073114     0.05900
C1127       C  0.52491822  0.89904105  0.42274596     0.42300
N1128       N  0.99301594  0.92866786  0.37346377     0.01200
C1129       C  0.58639797  0.54988767  0.59021708    -0.06700
H1130       H  0.58481457  0.57596526  0.41457900     0.06700
C1131       C  0.96443852  0.58567243  0.40717697    -0.07000
Co1132     Co  0.55928871  0.96755003  0.66376106     0.74200
N1133       N  0.57073611  0.53424338  0.37496915    -0.26200
Co1134     Co  0.53870151  0.55593133  0.66531181     0.74100
C1135       C  0.48558209  0.60226089  0.42638996     0.42400
N1136       N  0.93154995  0.50843855  0.37487645     0.00800
N1137       N  0.50575035  0.57558259  0.37562159     0.00900
N1138       N  0.59984213  0.99204992  0.59124219    -0.47100
H1139       H  0.57977043  0.92045810  0.41260349     0.06700
N1140       N  0.57923029  0.00041162  0.37391033     0.01200
N1141       N  0.50581144  0.57637631  0.62269577     0.00900
C1142       C  0.48568362  0.60391913  0.57308526     0.42500
N1143       N  0.93559370  0.97972742  0.37467693    -0.25700
C1144       C  0.55271166  0.92005430  0.58826763    -0.06600
N1145       N  0.98100119  0.90958391  0.40287356    -0.46800
N1146       N  0.51466981  0.59765249  0.59382788    -0.47000
C1147       C  0.52474560  0.90061708  0.56962732     0.42300
N1148       N  0.57913088  0.00080459  0.62093003     0.01200
N1149       N  0.93540023  0.98005317  0.62137780    -0.25700
N1150       N  0.53801650  0.93499562  0.37373061    -0.26200
N1151       N  0.93127355  0.50901767  0.62191137     0.00800
H1152       H  0.91432772  0.94083894  0.58259500     0.06700
H1153       H  0.93741319  0.58730417  0.58388683     0.06700
N1154       N  0.57079040  0.53488640  0.62129385    -0.26200
N1155       N  0.97817267  0.56934214  0.37575125    -0.25900
N1156       N  0.99299612  0.92924342  0.62037093     0.01200
C1157       C  0.60588391  0.52118219  0.42436188     0.42400
C1158       C  0.91772794  0.96732858  0.40560999    -0.07100
N1159       N  0.97815840  0.57001674  0.62253541    -0.25900
H1160       H  0.93739314  0.58615496  0.41531906     0.06700
N1161       N  0.60011986  0.99156739  0.40308340    -0.47100
H1162       H  0.91487977  0.94041700  0.41327449     0.06700
C1163       C  0.90221110  0.49127282  0.57200690     0.42400
C1164       C  0.55282486  0.91889188  0.40445614    -0.06600
Co1165     Co  0.96370752  0.95379380  0.66413763     0.73800
N1166       N  0.91166743  0.51897443  0.40455433    -0.46800
C1167       C  0.60572381  0.52205820  0.57102883     0.42700
N1168       N  0.98099753  0.91066999  0.59038975    -0.46800
Co1169     Co  0.95416999  0.53970906  0.66541156     0.73900
C1170       C  0.96444193  0.58682144  0.59182432    -0.07100
C1171       C  0.58643980  0.54905048  0.40611882    -0.06700
N1172       N  0.53794174  0.93561258  0.61975147    -0.26200
N1173       N  0.51457291  0.59638327  0.40515051    -0.47000
H1174       H  0.58471688  0.57684165  0.58234238     0.06700
C1175       C  0.91723213  0.96773410  0.59066154    -0.07100
Cl1176     Cl  0.50508517  0.50204604  0.66451864    -0.50100
C1177       C  0.90319370  0.49056385  0.42521766     0.42400
H1178       H  0.57964667  0.92172302  0.57985518     0.06700
N1179       N  0.91099408  0.51967031  0.59295500    -0.46800
C1180       C  0.98115618  0.73429746  0.52643507    -0.13500
C1181       C  0.50013633  0.71494210  0.49858885     0.08600
C1182       C  0.52110785  0.73025873  0.46942324    -0.13500
C1183       C  0.52642211  0.76608135  0.46884413    -0.13500
C1184       C  0.51094229  0.78774523  0.49743141     0.08600
C1185       C  0.98258202  0.77033086  0.52581145    -0.13500
H1186       H  0.96481075  0.72189436  0.54817845     0.12600
H1187       H  0.53398629  0.71450023  0.44729963     0.12600
H1188       H  0.54319934  0.77674114  0.44632894     0.12600
H1189       H  0.96733032  0.78473891  0.54716317     0.12600
C1190       C  0.73872230  0.52961903  0.47096269    -0.13500
C1191       C  0.71820821  0.01310053  0.49722826     0.08600
C1192       C  0.73489678  0.99107764  0.52395021    -0.13500
C1193       C  0.77098514  0.98858696  0.52438256    -0.13500
C1194       C  0.79129609  0.00804811  0.49809399     0.08600
C1195       C  0.77475126  0.52597158  0.47126379    -0.13500
H1196       H  0.72720144  0.54747961  0.45035941     0.12600
H1197       H  0.72000106  0.97541350  0.54424221     0.12600
H1198       H  0.78300474  0.97100458  0.54492489     0.12600
H1199       H  0.79008507  0.54106454  0.45082622     0.12600
C1200       C  0.67983528  0.01630956  0.83057710     0.03000
C1201       C  0.66148392  0.01766538  0.79474461    -0.13200
C1202       C  0.62522825  0.52216450  0.79504514     0.00500
C1203       C  0.60744392  0.52587789  0.83101554    -0.11700
C1204       C  0.62512314  0.52290142  0.86690086     0.03000
C1205       C  0.66126237  0.01791581  0.86645621    -0.11100
H1206       H  0.67512690  0.01515674  0.76681922     0.08500
H1207       H  0.57962022  0.52916490  0.83109156     0.06100
H1208       H  0.67477511  0.01633925  0.89437873     0.05900
C1209       C  0.82968994  0.00509719  0.83167630     0.03000
C1210       C  0.84838886  0.00342047  0.79588490    -0.13200
C1211       C  0.88367591  0.49122251  0.79594840     0.00500
C1212       C  0.90114412  0.48819310  0.83195035    -0.11700
C1213       C  0.88318282  0.49182815  0.86779837     0.03000
C1214       C  0.84788533  0.00351700  0.86763859    -0.11100
H1215       H  0.83493685  0.00447006  0.76788557     0.08500
H1216       H  0.92889391  0.48433852  0.83206938     0.06100
H1217       H  0.83408262  0.00539490  0.89551863     0.05900
C1218       C  0.49406075  0.67671338  0.83234645     0.03000
C1219       C  0.49108965  0.65783652  0.79669982    -0.13200
C1220       C  0.48470076  0.62213659  0.79698913     0.00500
C1221       C  0.48083453  0.60499169  0.83311040    -0.11700
C1222       C  0.48504030  0.62298711  0.86886524     0.03000
C1223       C  0.49167750  0.65866724  0.86838989    -0.11100
H1224       H  0.49344632  0.67082159  0.76855175     0.08500
H1225       H  0.47669818  0.57730754  0.83337952     0.06100
H1226       H  0.49550614  0.67219029  0.89617006     0.05900
C1227       C  0.51680455  0.82603960  0.83025685     0.03000
C1228       C  0.51918620  0.84410474  0.79417944    -0.13200
C1229       C  0.52544187  0.87989223  0.79369171     0.00500
C1230       C  0.52922721  0.89792275  0.82950230    -0.11700
C1231       C  0.52549617  0.88074653  0.86563681     0.03000
C1232       C  0.51948973  0.84497652  0.86591108    -0.11100
H1233       H  0.51564174  0.83051651  0.76639207     0.08500
H1234       H  0.53309504  0.92564328  0.82925712     0.06100
H1235       H  0.51725398  0.83197919  0.89406441     0.05900
C1236       C  0.52491814  0.89904113  0.75607933     0.42300
N1237       N  0.99301590  0.92866786  0.70679708     0.01200
C1238       C  0.58639790  0.54988773  0.92355048    -0.06700
H1239       H  0.58481447  0.57596521  0.74791251     0.06700
C1240       C  0.96443856  0.58567245  0.74051022    -0.07000
Co1241     Co  0.55928873  0.96754998  0.99709442     0.74200
N1242       N  0.57073602  0.53424334  0.70830257    -0.26200
Co1243     Co  0.53870152  0.55593136  0.99864516     0.74100
C1244       C  0.48558209  0.60226096  0.75972321     0.42400
N1245       N  0.93154992  0.50843852  0.70820971     0.00800
N1246       N  0.50575034  0.57558252  0.70895494     0.00900
N1247       N  0.59984212  0.99204980  0.92457542    -0.47100
H1248       H  0.57977036  0.92045810  0.74593687     0.06700
N1249       N  0.57923026  0.00041163  0.70724359     0.01200
N1250       N  0.50581144  0.57637635  0.95602911     0.00900
C1251       C  0.48568362  0.60391914  0.90641857     0.42500
N1252       N  0.93559364  0.97972742  0.70801018    -0.25700
C1253       C  0.55271170  0.92005416  0.92160107    -0.06600
N1254       N  0.98100115  0.90958394  0.73620690    -0.46800
N1255       N  0.51466982  0.59765251  0.92716118    -0.47000
C1256       C  0.52474562  0.90061701  0.90296072     0.42300
N1257       N  0.57913092  0.00080448  0.95426331     0.01200
N1258       N  0.93540015  0.98005312  0.95471116    -0.25700
N1259       N  0.53801649  0.93499558  0.70706388    -0.26200
N1260       N  0.93127355  0.50901771  0.95524464     0.00800
H1261       H  0.91432774  0.94083889  0.91592829     0.06700
H1262       H  0.93741329  0.58730412  0.91722021     0.06700
N1263       N  0.57079038  0.53488640  0.95462725    -0.26200
N1264       N  0.97817271  0.56934218  0.70908451    -0.25900
N1265       N  0.99299613  0.92924347  0.95370422     0.01200
C1266       C  0.60588387  0.52118214  0.75769524     0.42400
C1267       C  0.91772786  0.96732862  0.73894326    -0.07100
N1268       N  0.97815848  0.57001671  0.95586879    -0.25900
H1269       H  0.93739317  0.58615497  0.74865226     0.06700
N1270       N  0.60011985  0.99156740  0.73641662    -0.47100
H1271       H  0.91487967  0.94041703  0.74660780     0.06700
C1272       C  0.90221100  0.49127284  0.90534027     0.42400
C1273       C  0.55282481  0.91889185  0.73778946    -0.06600
Co1274     Co  0.96370748  0.95379378  0.99747096     0.73800
N1275       N  0.91166737  0.51897441  0.73788756    -0.46800
C1276       C  0.60572377  0.52205827  0.90436221     0.42700
N1277       N  0.98099761  0.91066999  0.92372305    -0.46800
Co1278     Co  0.95416999  0.53970905  0.99874488     0.73900
C1279       C  0.96444200  0.58682142  0.92515771    -0.07100
C1280       C  0.58643968  0.54905039  0.73945228    -0.06700
N1281       N  0.53794176  0.93561251  0.95308486    -0.26200
N1282       N  0.51457291  0.59638323  0.73848380    -0.47000
H1283       H  0.58471674  0.57684169  0.91567583     0.06700
C1284       C  0.91723207  0.96773405  0.92399488    -0.07100
Cl1285     Cl  0.50508521  0.50204605  0.99785211    -0.50100
C1286       C  0.90319369  0.49056386  0.75855097     0.42400
H1287       H  0.57964672  0.92172275  0.91318870     0.06700
N1288       N  0.91099403  0.51967035  0.92628834    -0.46800
C1289       C  0.98115616  0.73429741  0.85976836    -0.13500
C1290       C  0.50013628  0.71494211  0.83192214     0.08600
C1291       C  0.52110777  0.73025875  0.80275652    -0.13500
C1292       C  0.52642207  0.76608135  0.80217747    -0.13500
C1293       C  0.51094224  0.78774523  0.83076472     0.08600
C1294       C  0.98258196  0.77033082  0.85914474    -0.13500
H1295       H  0.96481074  0.72189428  0.88151171     0.12600
H1296       H  0.53398617  0.71450026  0.78063287     0.12600
H1297       H  0.54319935  0.77674118  0.77966231     0.12600
H1298       H  0.96733025  0.78473886  0.88049641     0.12600
C1299       C  0.73872235  0.52961901  0.80429601    -0.13500
C1300       C  0.71820822  0.01310046  0.83056158     0.08600
C1301       C  0.73489682  0.99107753  0.85728353    -0.13500
C1302       C  0.77098518  0.98858690  0.85771588    -0.13500
C1303       C  0.79129611  0.00804813  0.83142737     0.08600
C1304       C  0.77475130  0.52597154  0.80459703    -0.13500
H1305       H  0.72720147  0.54747966  0.78369273     0.12600
H1306       H  0.72000114  0.97541337  0.87757548     0.12600
H1307       H  0.78300482  0.97100452  0.87825822     0.12600
H1308       H  0.79008507  0.54106447  0.78415943     0.12600
loop_ 
_geom_bond_atom_site_label_1 
_geom_bond_atom_site_label_2 
_geom_bond_distance 
_geom_bond_site_symmetry_2 
_ccdc_geom_bond_type 
C1            C2   1.410       .  A
C1            C6   1.410       .  A
C1          C101   1.493       .  S
C2          C330   1.404       .  A
C2            H7   1.084       .  S
C3            C4   1.400       .  A
C3          C329   1.403   1_545  A
C3           C67   1.468       .  S
C4            C5   1.400       .  A
C4            H8   1.084       .  S
C5          C333   1.403   1_545  A
C5           C77   1.468       .  S
C6          C332   1.404       .  A
C6            H9   1.083       .  S
C10          C11   1.409       .  A
C10          C15   1.410       .  A
C10         C104   1.494       .  S
C11         C339   1.404       .  A
C11          H16   1.083       .  S
C12          C13   1.400       .  A
C12         C338   1.402       .  A
C12          C87   1.467       .  S
C13          C14   1.401       .  A
C13          H17   1.084       .  S
C14         C342   1.404       .  A
C14          C73   1.469       .  S
C15         C341   1.405       .  A
C15          H18   1.084       .  S
C19          C20   1.410       .  A
C19          C24   1.410       .  A
C19          C91   1.492       .  S
C20          C21   1.403       .  A
C20          H25   1.083       .  S
C21          C22   1.399       .  A
C21          C45   1.467       .  S
C22          C23   1.399       .  A
C22          H26   1.084   1_455  S
C23          C24   1.402       .  A
C23          C52   1.467       .  S
C24          H27   1.084       .  S
C28          C29   1.410       .  A
C28          C33   1.409       .  A
C28          C94   1.492       .  S
C29          C30   1.402       .  A
C29          H34   1.084       .  S
C30          C31   1.399       .  A
C30          C37   1.466       .  S
C31          C32   1.399       .  A
C31          H35   1.084       .  S
C32          C33   1.401       .  A
C32          C57   1.465       .  S
C33          H36   1.083       .  S
C37          C74   1.455       .  S
C37         N709   1.348   1_455  A
N38          N55   1.326       .  A
N38         N714   1.321       .  A
N38        Co293   2.089   1_554  S
C39          C77   1.457       .  S
C39          H84   1.081       .  S
C39          N64   1.343       .  A
H40          C81   1.081       .  S
C41         C699   1.463       .  S
C41          H70   1.081       .  S
C41          N65   1.347       .  A
Co42         N82   2.087       .  S
Co42         N58   2.083       .  S
Co42        N169   2.086       .  S
Co42        N159   2.088       .  S
Co42       Cl413   2.455       .  S
N43          C81   1.342       .  A
N43         N377   1.321   1_545  A
N43        Co262   2.088   1_554  S
Co44         N64   2.091       .  S
Co44         N51   2.084       .  S
Co44        N152   2.088       .  S
Co44        N156   2.086       .  S
Co44        Cl86   2.456       .  S
C45         C695   1.456   1_455  S
C45          N83   1.348       .  A
N46          N76   1.324       .  A
N46         N380   1.322   1_545  A
N46        Co297   2.088   1_554  S
N47          N83   1.325       .  A
N47         N719   1.321   1_455  A
N47        Co262   2.086   1_554  S
N48         C404   1.347       .  A
N48          N58   1.325       .  A
H49          C74   1.081       .  S
N50          N71   1.326       .  A
N50         N370   1.321       .  A
N50        Co260   2.088   1_554  S
N51          N56   1.325       .  A
N51         N723   1.321   1_455  A
C52         C734   1.457   1_455  S
C52          N56   1.348       .  A
N53          C68   1.345       .  A
N53         N373   1.322       .  A
N53        Co293   2.098   1_554  S
C54          C57   1.454       .  S
C54          H88   1.081       .  S
C54          N82   1.341       .  A
N55         C691   1.349       .  A
C57         N732   1.348   1_455  A
N58         N391   1.320       .  A
N59          C85   1.344       .  A
N59         N388   1.321       .  A
N59         Co75   2.095       .  S
N60          C74   1.341       .  A
N60         N692   1.321   1_455  A
N60        Co260   2.086   1_554  S
N61          N89   1.325       .  A
N61         N386   1.322   1_545  A
N61         Co79   2.091       .  S
H62          C85   1.081       .  S
H63          C80   1.081       .  S
N64         N385   1.321   1_545  A
N65         N701   1.321       .  A
N65        Co297   2.104   1_554  S
N66          N78   1.326       .  A
N66         N736   1.321       .  A
N66         Co75   2.091       .  S
C67          C81   1.456       .  S
C67         N398   1.349   1_545  A
C68         C414   1.460       .  S
C68          H72   1.081       .  S
N69          C80   1.346       .  A
N69         N705   1.321       .  A
N69         Co79   2.105       .  S
N71         C394   1.349       .  A
C73         C412   1.457       .  S
C73          N89   1.349   1_565  A
Co75        N147   2.089       .  S
Co75        N162   2.098       .  S
Co75      Cl1067   2.459       .  S
N76          C87   1.348   1_545  A
C77         N375   1.348   1_545  A
N78         C711   1.349       .  A
Co79        N155   2.088       .  S
Co79        N174   2.104       .  S
Co79       Cl740   2.455       .  S
C80         C706   1.463       .  S
N82         N720   1.322   1_455  A
C85         C400   1.458       .  S
Cl86       Co369   2.454   1_545  S
Cl86      Co1056   2.456   1_445  S
Cl86       Co733   2.453   1_455  S
C87         C395   1.457       .  S
C90          C95   1.403       .  A
C90         C745   1.409       .  A
C90          H96   1.082       .  S
C91          C92   1.407       .  A
C91         C744   1.407   1_455  A
C92          C93   1.400       .  A
C92          H97   1.083       .  S
C93          C94   1.407       .  A
C93          H98   1.082       .  S
C94         C749   1.406   1_455  A
C95         C748   1.409       .  A
C95          H99   1.082       .  S
C100        C105   1.400       .  A
C100        C428   1.406   1_545  A
C100        H106   1.083       .  S
C101        C102   1.407       .  A
C101        C427   1.407       .  A
C102        C103   1.402       .  A
C102        H107   1.083       .  S
C103        C104   1.407       .  A
C103        H108   1.083       .  S
C104        C432   1.407       .  A
C105        C431   1.406   1_545  A
C105        H109   1.083       .  S
C110        C111   1.410       .  A
C110        C115   1.410       .  A
C110        C210   1.493       .  S
C111        C439   1.404       .  A
C111        H116   1.084       .  S
C112        C438   1.403   1_545  A
C112        C113   1.400       .  A
C112        C176   1.468       .  S
C113        C114   1.400       .  A
C113        H117   1.084       .  S
C114        C442   1.403   1_545  A
C114        C186   1.468       .  S
C115        C441   1.404       .  A
C115        H118   1.084       .  S
C119        C120   1.409       .  A
C119        C124   1.410       .  A
C119        C213   1.494       .  S
C120        C448   1.404       .  A
C120        H125   1.083       .  S
C121        C447   1.402       .  A
C121        C122   1.400       .  A
C121        C196   1.467       .  S
C122        C123   1.401       .  A
C122        H126   1.084       .  S
C123        C451   1.404       .  A
C123        C182   1.469       .  S
C124        C450   1.405       .  A
C124        H127   1.084       .  S
C128        C129   1.410       .  A
C128        C133   1.410       .  A
C128        C200   1.492       .  S
C129        C130   1.403       .  A
C129        H134   1.083       .  S
C130        C131   1.399       .  A
C130        C154   1.467       .  S
C131        C132   1.399       .  A
C131        H135   1.084   1_455  S
C132        C133   1.402       .  A
C132        C161   1.467       .  S
C133        H136   1.084       .  S
C137        C138   1.410       .  A
C137        C142   1.409       .  A
C137        C203   1.492       .  S
C138        C139   1.402       .  A
C138        H143   1.084       .  S
C139        C140   1.399       .  A
C139        C146   1.466       .  S
C140        C141   1.399       .  A
C140        H144   1.084       .  S
C141        C142   1.401       .  A
C141        C166   1.465       .  S
C142        H145   1.083       .  S
C146        C183   1.455       .  S
C146        N818   1.348   1_455  A
N147        N164   1.326       .  A
N147        N823   1.321       .  A
C148        C186   1.457       .  S
C148        H193   1.081       .  S
C148        N173   1.343       .  A
H149        C190   1.081       .  S
C150        C808   1.463       .  S
C150        H179   1.081       .  S
C150        N174   1.347       .  A
Co151       N278   2.086       .  S
Co151       N268   2.088       .  S
Co151       N191   2.087       .  S
Co151       N167   2.083       .  S
Co151      Cl522   2.455       .  S
N152        C190   1.342       .  A
N152        N486   1.321   1_545  A
Co153       N261   2.088       .  S
Co153       N265   2.086       .  S
Co153       N173   2.091       .  S
Co153       N160   2.084       .  S
Co153      Cl195   2.456       .  S
C154        C804   1.456   1_455  S
C154        N192   1.348       .  A
N155        N489   1.322   1_545  A
N155        N185   1.324       .  A
N156        N828   1.321   1_455  A
N156        N192   1.325       .  A
N157        C513   1.347       .  A
N157        N167   1.325       .  A
H158        C183   1.081       .  S
N159        N479   1.321       .  A
N159        N180   1.326       .  A
N160        N832   1.321   1_455  A
N160        N165   1.325       .  A
C161        C843   1.457   1_455  S
C161        N165   1.348       .  A
N162        C177   1.345       .  A
N162        N482   1.322       .  A
C163        C166   1.454       .  S
C163        H197   1.081       .  S
C163        N191   1.341       .  A
N164        C800   1.349       .  A
C166        N841   1.348   1_455  A
N167        N500   1.320       .  A
N168        C194   1.344       .  A
N168        N497   1.321       .  A
N168       Co184   2.095       .  S
N169        C183   1.341       .  A
N169        N801   1.321   1_455  A
N170        N495   1.322   1_545  A
N170        N198   1.325       .  A
N170       Co188   2.091       .  S
H171        C194   1.081       .  S
H172        C189   1.081       .  S
N173        N494   1.321   1_545  A
N174        N810   1.321       .  A
N175        N187   1.326       .  A
N175        N845   1.321       .  A
N175       Co184   2.091       .  S
C176        C190   1.456       .  S
C176        N507   1.349   1_545  A
C177        C523   1.460       .  S
C177        H181   1.081       .  S
N178        C189   1.346       .  A
N178        N814   1.321       .  A
N178       Co188   2.105       .  S
N180        C503   1.349       .  A
C182        C521   1.457       .  S
C182        N198   1.349   1_565  A
Co184       N256   2.089       .  S
Co184       N271   2.098       .  S
Co184     Cl1176   2.459       .  S
N185        C196   1.348   1_545  A
C186        N484   1.348   1_545  A
N187        C820   1.349       .  A
Co188       N264   2.088       .  S
Co188       N283   2.104       .  S
Co188      Cl849   2.455       .  S
C189        C815   1.463       .  S
N191        N829   1.322   1_455  A
C194        C509   1.458       .  S
Cl195      Co478   2.454   1_545  S
Cl195     Co1165   2.456   1_445  S
Cl195      Co842   2.453   1_455  S
C196        C504   1.457       .  S
C199        C854   1.409       .  A
C199        C204   1.403       .  A
C199        H205   1.082       .  S
C200        C853   1.407   1_455  A
C200        C201   1.407       .  A
C201        C202   1.400       .  A
C201        H206   1.083       .  S
C202        C203   1.407       .  A
C202        H207   1.082       .  S
C203        C858   1.406   1_455  A
C204        C857   1.409       .  A
C204        H208   1.082       .  S
C209        C537   1.406   1_545  A
C209        C214   1.400       .  A
C209        H215   1.083       .  S
C210        C536   1.407       .  A
C210        C211   1.407       .  A
C211        C212   1.402       .  A
C211        H216   1.083       .  S
C212        C213   1.407       .  A
C212        H217   1.083       .  S
C213        C541   1.407       .  A
C214        C540   1.406   1_545  A
C214        H218   1.083       .  S
C219        C220   1.410       .  A
C219        C224   1.410       .  A
C219        C319   1.493       .  S
C220        C548   1.404       .  A
C220        H225   1.084       .  S
C221        C547   1.403   1_545  A
C221        C222   1.400       .  A
C221        C285   1.468       .  S
C222        C223   1.400       .  A
C222        H226   1.084       .  S
C223        C551   1.403   1_545  A
C223        C295   1.468       .  S
C224        C550   1.404       .  A
C224        H227   1.083       .  S
C228        C229   1.409       .  A
C228        C233   1.410       .  A
C228        C322   1.494       .  S
C229        C557   1.404       .  A
C229        H234   1.083       .  S
C230        C556   1.402       .  A
C230        C231   1.400       .  A
C230        C305   1.467       .  S
C231        C232   1.401       .  A
C231        H235   1.084       .  S
C232        C560   1.404       .  A
C232        C291   1.469       .  S
C233        C559   1.405       .  A
C233        H236   1.084       .  S
C237        C238   1.410       .  A
C237        C242   1.410       .  A
C237        C309   1.492       .  S
C238        C239   1.403       .  A
C238        H243   1.083       .  S
C239        C240   1.399       .  A
C239        C263   1.467       .  S
C240        C241   1.399       .  A
C240        H244   1.084   1_455  S
C241        C242   1.402       .  A
C241        C270   1.467       .  S
C242        H245   1.084       .  S
C246        C247   1.410       .  A
C246        C251   1.409       .  A
C246        C312   1.492       .  S
C247        C248   1.402       .  A
C247        H252   1.084       .  S
C248        C249   1.399       .  A
C248        C255   1.466       .  S
C249        C250   1.399       .  A
C249        H253   1.084       .  S
C250        C251   1.401       .  A
C250        C275   1.465       .  S
C251        H254   1.083       .  S
C255        C292   1.455       .  S
C255        N927   1.348   1_455  A
N256        N273   1.326       .  A
N256        N932   1.321       .  A
C257        C295   1.457       .  S
C257        H302   1.081       .  S
C257        N282   1.343       .  A
H258        C299   1.081       .  S
C259        C917   1.463       .  S
C259        H288   1.081       .  S
C259        N283   1.347       .  A
Co260       N300   2.087       .  S
Co260       N276   2.083       .  S
Co260      Cl631   2.455       .  S
N261        C299   1.342       .  A
N261        N595   1.321   1_545  A
Co262       N282   2.091       .  S
Co262       N269   2.084       .  S
Co262      Cl304   2.456       .  S
C263        C913   1.456   1_455  S
C263        N301   1.348       .  A
N264        N598   1.322   1_545  A
N264        N294   1.324       .  A
N265        N937   1.321   1_455  A
N265        N301   1.325       .  A
N266        C622   1.347       .  A
N266        N276   1.325       .  A
H267        C292   1.081       .  S
N268        N588   1.321       .  A
N268        N289   1.326       .  A
N269        N941   1.321   1_455  A
N269        N274   1.325       .  A
C270        C952   1.457   1_455  S
C270        N274   1.348       .  A
N271        C286   1.345       .  A
N271        N591   1.322       .  A
C272        C275   1.454       .  S
C272        H306   1.081       .  S
C272        N300   1.341       .  A
N273        C909   1.349       .  A
C275        N950   1.348   1_455  A
N276        N609   1.320       .  A
N277        C303   1.344       .  A
N277        N606   1.321       .  A
N277       Co293   2.095       .  S
N278        C292   1.341       .  A
N278        N910   1.321   1_455  A
N279        N604   1.322   1_545  A
N279        N307   1.325       .  A
N279       Co297   2.091       .  S
H280        C303   1.081       .  S
H281        C298   1.081       .  S
N282        N603   1.321   1_545  A
N283        N919   1.321       .  A
N284        N296   1.326       .  A
N284        N954   1.321       .  A
N284       Co293   2.091       .  S
C285        C299   1.456       .  S
C285        N616   1.349   1_545  A
C286        C632   1.460       .  S
C286        H290   1.081       .  S
N287        C298   1.346       .  A
N287        N923   1.321       .  A
N287       Co297   2.105       .  S
N289        C612   1.349       .  A
C291        C630   1.457       .  S
C291        N307   1.349   1_565  A
Co293     Cl1285   2.459       .  S
N294        C305   1.348   1_545  A
C295        N593   1.348   1_545  A
N296        C929   1.349       .  A
Co297      Cl958   2.455       .  S
C298        C924   1.463       .  S
N300        N938   1.322   1_455  A
C303        C618   1.458       .  S
Cl304      Co587   2.454   1_545  S
Cl304     Co1274   2.456   1_445  S
Cl304      Co951   2.453   1_455  S
C305        C613   1.457       .  S
C308        C963   1.409       .  A
C308        C313   1.403       .  A
C308        H314   1.082       .  S
C309        C962   1.407   1_455  A
C309        C310   1.407       .  A
C310        C311   1.400       .  A
C310        H315   1.083       .  S
C311        C312   1.407       .  A
C311        H316   1.082       .  S
C312        C967   1.406   1_455  A
C313        C966   1.409       .  A
C313        H317   1.082       .  S
C318        C646   1.406   1_545  A
C318        C323   1.400       .  A
C318        H324   1.083       .  S
C319        C645   1.407       .  A
C319        C320   1.407       .  A
C320        C321   1.402       .  A
C320        H325   1.083       .  S
C321        C322   1.407       .  A
C321        H326   1.083       .  S
C322        C650   1.407       .  A
C323        C649   1.406   1_545  A
C323        H327   1.083       .  S
C328        C329   1.409       .  A
C328        C333   1.409       .  A
C328        C428   1.490       .  S
C329        H334   1.084       .  S
C330        C331   1.401       .  A
C330        C394   1.471       .  S
C331        C332   1.401       .  A
C331        H335   1.084       .  S
C332        C404   1.470       .  S
C333        H336   1.084       .  S
C337        C338   1.408       .  A
C337        C342   1.409       .  A
C337        C431   1.490       .  S
C338        H343   1.084       .  S
C339        C340   1.401       .  A
C339        C414   1.470       .  S
C340        C341   1.401       .  A
C340        H344   1.084       .  S
C341        C400   1.471       .  S
C342        H345   1.084       .  S
C346        C347   1.407       .  A
C346        C351   1.408       .  A
C346        C418   1.487       .  S
C347        C348   1.400       .  A
C347        H352   1.083       .  S
C348        C349   1.399       .  A
C348        C372   1.463       .  S
C349        C350   1.399       .  A
C349        H353   1.084       .  S
C350        C351   1.401       .  A
C350        C379   1.463       .  S
C351        H354   1.084       .  S
C355        C356   1.409       .  A
C355        C360   1.408       .  A
C355        C421   1.487       .  S
C356        C357   1.402       .  A
C356        H361   1.084       .  S
C357        C358   1.400       .  A
C357        C364   1.466       .  S
C358        C359   1.399       .  A
C358        H362   1.084       .  S
C359        C360   1.400       .  A
C359        C384   1.464       .  S
C360        H363   1.083       .  S
C364        C401   1.456       .  S
C364       N1036   1.348   1_455  A
N365        N382   1.326       .  A
N365       N1041   1.321       .  A
N365       Co620   2.087   1_554  S
C366        C404   1.460       .  S
C366        H411   1.081       .  S
C366        N391   1.344       .  A
H367        C408   1.081       .  S
C368       C1026   1.460       .  S
C368        H397   1.081       .  S
C368        N392   1.345       .  A
Co369       N496   2.088       .  S
Co369       N486   2.088       .  S
Co369       N409   2.087       .  S
Co369       N385   2.087       .  S
N370        C408   1.343       .  A
N370       Co589   2.094   1_554  S
Co371       N479   2.094       .  S
Co371       N483   2.084       .  S
Co371       N391   2.094       .  S
Co371       N378   2.085       .  S
Co371      Cl413   2.455       .  S
C372       C1022   1.454       .  S
C372        N410   1.347   1_655  A
N373        N403   1.324       .  A
N373       Co624   2.084   1_554  S
N374       N1046   1.321   1_455  A
N374        N410   1.324       .  A
N374       Co589   2.084   1_554  S
N375        N385   1.325       .  A
H376        C401   1.081       .  S
N377        N398   1.326       .  A
N377       Co587   2.088   1_554  S
N378       N1050   1.321   1_455  A
N378        N383   1.324       .  A
C379       C1061   1.455       .  S
C379        N383   1.347   1_655  A
N380        C395   1.343       .  A
N380       Co620   2.091   1_554  S
C381        C384   1.454       .  S
C381        H415   1.081       .  S
C381        N409   1.341       .  A
N382       C1018   1.349       .  A
C384       N1059   1.348   1_455  A
N386        C412   1.343       .  A
N386       Co402   2.091       .  S
N387        C401   1.341       .  A
N387       N1019   1.321   1_455  A
N387       Co587   2.088   1_554  S
N388        N416   1.326       .  A
N388       Co406   2.088       .  S
H389        C412   1.081       .  S
H390        C407   1.081       .  S
N392       N1028   1.321       .  A
N392       Co624   2.099   1_554  S
N393        N405   1.325       .  A
N393       N1063   1.321       .  A
N393       Co402   2.086       .  S
C394        C408   1.458       .  S
C395        H399   1.081       .  S
N396        C407   1.345       .  A
N396       N1032   1.321       .  A
N396       Co406   2.098       .  S
C400        N416   1.349       .  A
Co402       N474   2.087       .  S
Co402       N489   2.091       .  S
Co402      Cl740   2.460   1_565  S
N403        C414   1.347       .  A
N405       C1038   1.348       .  A
Co406       N482   2.084       .  S
Co406       N501   2.099       .  S
Co406     Cl1067   2.456       .  S
C407       C1033   1.460       .  S
N409       N1047   1.321   1_455  A
Cl413      Co729   2.454   1_455  S
Cl413     Co1060   2.455   1_455  S
C417       C1072   1.408       .  A
C417        C422   1.403       .  A
C417        H423   1.082       .  S
C418       C1071   1.406       .  A
C418        C419   1.406   1_655  A
C419        C420   1.398       .  A
C419        H424   1.083       .  S
C420        C421   1.406       .  A
C420        H425   1.082       .  S
C421       C1076   1.406   1_455  A
C422       C1075   1.409       .  A
C422        H426   1.083       .  S
C427        C432   1.401       .  A
C427        H433   1.083       .  S
C428        C429   1.406       .  A
C429        C430   1.400       .  A
C429        H434   1.083       .  S
C430        C431   1.406       .  A
C430        H435   1.083       .  S
C432        H436   1.083       .  S
C437        C438   1.409       .  A
C437        C442   1.409       .  A
C437        C537   1.490       .  S
C438        H443   1.084       .  S
C439        C440   1.401       .  A
C439        C503   1.471       .  S
C440        C441   1.401       .  A
C440        H444   1.084       .  S
C441        C513   1.470       .  S
C442        H445   1.084       .  S
C446        C447   1.408       .  A
C446        C451   1.409       .  A
C446        C540   1.490       .  S
C447        H452   1.084       .  S
C448        C449   1.401       .  A
C448        C523   1.470       .  S
C449        C450   1.401       .  A
C449        H453   1.084       .  S
C450        C509   1.471       .  S
C451        H454   1.084       .  S
C455        C456   1.407       .  A
C455        C460   1.408       .  A
C455        C527   1.487       .  S
C456        C457   1.400       .  A
C456        H461   1.083       .  S
C457        C458   1.399       .  A
C457        C481   1.463       .  S
C458        C459   1.399       .  A
C458        H462   1.084       .  S
C459        C460   1.401       .  A
C459        C488   1.463       .  S
C460        H463   1.084       .  S
C464        C465   1.409       .  A
C464        C469   1.408       .  A
C464        C530   1.487       .  S
C465        C466   1.402       .  A
C465        H470   1.084       .  S
C466        C467   1.400       .  A
C466        C473   1.466       .  S
C467        C468   1.399       .  A
C467        H471   1.084       .  S
C468        C469   1.400       .  A
C468        C493   1.464       .  S
C469        H472   1.083       .  S
C473        C510   1.456       .  S
C473       N1145   1.348   1_455  A
N474        N491   1.326       .  A
N474       N1150   1.321       .  A
C475        C513   1.460       .  S
C475        H520   1.081       .  S
C475        N500   1.344       .  A
H476        C517   1.081       .  S
C477       C1135   1.460       .  S
C477        H506   1.081       .  S
C477        N501   1.345       .  A
Co478       N605   2.088       .  S
Co478       N595   2.088       .  S
Co478       N518   2.087       .  S
Co478       N494   2.087       .  S
N479        C517   1.343       .  A
Co480       N588   2.094       .  S
Co480       N592   2.084       .  S
Co480       N500   2.094       .  S
Co480       N487   2.085       .  S
Co480      Cl522   2.455       .  S
C481       C1131   1.454       .  S
C481        N519   1.347   1_655  A
N482        N512   1.324       .  A
N483       N1155   1.321   1_455  A
N483        N519   1.324       .  A
N484        N494   1.325       .  A
H485        C510   1.081       .  S
N486        N507   1.326       .  A
N487       N1159   1.321   1_455  A
N487        N492   1.324       .  A
C488       C1170   1.455       .  S
C488        N492   1.347   1_655  A
N489        C504   1.343       .  A
C490        C493   1.454       .  S
C490        H524   1.081       .  S
C490        N518   1.341       .  A
N491       C1127   1.349       .  A
C493       N1168   1.348   1_455  A
N495        C521   1.343       .  A
N495       Co511   2.091       .  S
N496        C510   1.341       .  A
N496       N1128   1.321   1_455  A
N497        N525   1.326       .  A
N497       Co515   2.088       .  S
H498        C521   1.081       .  S
H499        C516   1.081       .  S
N501       N1137   1.321       .  A
N502        N514   1.325       .  A
N502       N1172   1.321       .  A
N502       Co511   2.086       .  S
C503        C517   1.458       .  S
C504        H508   1.081       .  S
N505        C516   1.345       .  A
N505       N1141   1.321       .  A
N505       Co515   2.098       .  S
C509        N525   1.349       .  A
Co511       N583   2.087       .  S
Co511       N598   2.091       .  S
Co511      Cl849   2.460   1_565  S
N512        C523   1.347       .  A
N514       C1147   1.348       .  A
Co515       N591   2.084       .  S
Co515       N610   2.099       .  S
Co515     Cl1176   2.456       .  S
C516       C1142   1.460       .  S
N518       N1156   1.321   1_455  A
Cl522      Co838   2.454   1_455  S
Cl522     Co1169   2.455   1_455  S
C526       C1181   1.408       .  A
C526        C531   1.403       .  A
C526        H532   1.082       .  S
C527       C1180   1.406       .  A
C527        C528   1.406   1_655  A
C528        C529   1.398       .  A
C528        H533   1.083       .  S
C529        C530   1.406       .  A
C529        H534   1.082       .  S
C530       C1185   1.406   1_455  A
C531       C1184   1.409       .  A
C531        H535   1.083       .  S
C536        C541   1.401       .  A
C536        H542   1.083       .  S
C537        C538   1.406       .  A
C538        C539   1.400       .  A
C538        H543   1.083       .  S
C539        C540   1.406       .  A
C539        H544   1.083       .  S
C541        H545   1.083       .  S
C546        C547   1.409       .  A
C546        C551   1.409       .  A
C546        C646   1.490       .  S
C547        H552   1.084       .  S
C548        C549   1.401       .  A
C548        C612   1.471       .  S
C549        C550   1.401       .  A
C549        H553   1.084       .  S
C550        C622   1.470       .  S
C551        H554   1.084       .  S
C555        C556   1.408       .  A
C555        C560   1.409       .  A
C555        C649   1.490       .  S
C556        H561   1.084       .  S
C557        C558   1.401       .  A
C557        C632   1.470       .  S
C558        C559   1.401       .  A
C558        H562   1.084       .  S
C559        C618   1.471       .  S
C560        H563   1.084       .  S
C564        C565   1.407       .  A
C564        C569   1.408       .  A
C564        C636   1.487       .  S
C565        C566   1.400       .  A
C565        H570   1.083       .  S
C566        C567   1.399       .  A
C566        C590   1.463       .  S
C567        C568   1.399       .  A
C567        H571   1.084       .  S
C568        C569   1.401       .  A
C568        C597   1.463       .  S
C569        H572   1.084       .  S
C573        C574   1.409       .  A
C573        C578   1.408       .  A
C573        C639   1.487       .  S
C574        C575   1.402       .  A
C574        H579   1.084       .  S
C575        C576   1.400       .  A
C575        C582   1.466       .  S
C576        C577   1.399       .  A
C576        H580   1.084       .  S
C577        C578   1.400       .  A
C577        C602   1.464       .  S
C578        H581   1.083       .  S
C582        C619   1.456       .  S
C582       N1254   1.348   1_455  A
N583        N600   1.326       .  A
N583       N1259   1.321       .  A
C584        C622   1.460       .  S
C584        H629   1.081       .  S
C584        N609   1.344       .  A
H585        C626   1.081       .  S
C586       C1244   1.460       .  S
C586        H615   1.081       .  S
C586        N610   1.345       .  A
Co587       N627   2.087       .  S
Co587       N603   2.087       .  S
N588        C626   1.343       .  A
Co589       N609   2.094       .  S
Co589       N596   2.085       .  S
Co589      Cl631   2.455       .  S
C590       C1240   1.454       .  S
C590        N628   1.347   1_655  A
N591        N621   1.324       .  A
N592       N1264   1.321   1_455  A
N592        N628   1.324       .  A
N593        N603   1.325       .  A
H594        C619   1.081       .  S
N595        N616   1.326       .  A
N596       N1268   1.321   1_455  A
N596        N601   1.324       .  A
C597       C1279   1.455       .  S
C597        N601   1.347   1_655  A
N598        C613   1.343       .  A
C599        C602   1.454       .  S
C599        H633   1.081       .  S
C599        N627   1.341       .  A
N600       C1236   1.349       .  A
C602       N1277   1.348   1_455  A
N604        C630   1.343       .  A
N604       Co620   2.091       .  S
N605        C619   1.341       .  A
N605       N1237   1.321   1_455  A
N606        N634   1.326       .  A
N606       Co624   2.088       .  S
H607        C630   1.081       .  S
H608        C625   1.081       .  S
N610       N1246   1.321       .  A
N611        N623   1.325       .  A
N611       N1281   1.321       .  A
N611       Co620   2.086       .  S
C612        C626   1.458       .  S
C613        H617   1.081       .  S
N614        C625   1.345       .  A
N614       N1250   1.321       .  A
N614       Co624   2.098       .  S
C618        N634   1.349       .  A
Co620      Cl958   2.460   1_565  S
N621        C632   1.347       .  A
N623       C1256   1.348       .  A
Co624     Cl1285   2.456       .  S
C625       C1251   1.460       .  S
N627       N1265   1.321   1_455  A
Cl631      Co947   2.454   1_455  S
Cl631     Co1278   2.455   1_455  S
C635       C1290   1.408       .  A
C635        C640   1.403       .  A
C635        H641   1.082       .  S
C636       C1289   1.406       .  A
C636        C637   1.406   1_655  A
C637        C638   1.398       .  A
C637        H642   1.083       .  S
C638        C639   1.406       .  A
C638        H643   1.082       .  S
C639       C1294   1.406   1_455  A
C640       C1293   1.409       .  A
C640        H644   1.083       .  S
C645        C650   1.401       .  A
C645        H651   1.083       .  S
C646        C647   1.406       .  A
C647        C648   1.400       .  A
C647        H652   1.083       .  S
C648        C649   1.406       .  A
C648        H653   1.083       .  S
C650        H654   1.083       .  S
C655        C656   1.409       .  A
C655        C660   1.409       .  A
C655        C755   1.493       .  S
C656        C984   1.405       .  A
C656        H661   1.084       .  S
C657        C983   1.403       .  A
C657        C658   1.401       .  A
C657        C721   1.469       .  S
C658        C659   1.401       .  A
C658        H662   1.084       .  S
C659        C987   1.403       .  A
C659        C731   1.469       .  S
C660        C986   1.404       .  A
C660        H663   1.084       .  S
C664        C665   1.410       .  A
C664        C669   1.410       .  A
C664        C758   1.493       .  S
C665        C993   1.404       .  A
C665        H670   1.084       .  S
C666        C992   1.402   1_565  A
C666        C667   1.400       .  A
C666        C741   1.468       .  S
C667        C668   1.400       .  A
C667        H671   1.084       .  S
C668        C996   1.404   1_565  A
C668        C727   1.469       .  S
C669        C995   1.404       .  A
C669        H672   1.084       .  S
C673        C674   1.413       .  A
C673        C678   1.414       .  A
C673        C745   1.505       .  S
C674        C675   1.407       .  A
C674        H679   1.083       .  S
C675        C676   1.402       .  A
C675        C699   1.477       .  S
C676        C677   1.402       .  A
C676        H680   1.084       .  S
C677        C678   1.408       .  A
C677        C706   1.477       .  S
C678        H681   1.083       .  S
C682        C683   1.414       .  A
C682        C687   1.413       .  A
C682        C748   1.505       .  S
C683        C684   1.408       .  A
C683        H688   1.083       .  S
C684        C685   1.402       .  A
C684        C691   1.476       .  S
C685        C686   1.401       .  A
C685        H689   1.084       .  S
C686        C687   1.406       .  A
C686        C711   1.476       .  S
C687        H690   1.083       .  S
C691        C728   1.461       .  S
N692        N709   1.325       .  A
N692       Co947   2.087   1_554  S
C693        C731   1.458       .  S
C693        H738   1.081       .  S
C693        N718   1.344       .  A
H694        C735   1.081       .  S
C695        H724   1.081       .  S
C695        N719   1.342       .  A
Co696       N823   2.099       .  S
Co696       N813   2.090       .  S
Co696       N736   2.100       .  S
Co696       N712   2.086       .  S
Co696     Cl1067   2.456       .  S
N697        C735   1.343       .  A
N697       N1031   1.322       .  A
N697       Co916   2.091   1_554  S
Co698       N806   2.091       .  S
Co698       N810   2.087       .  S
Co698       N718   2.093       .  S
Co698       N705   2.085       .  S
Co698      Cl740   2.460       .  S
C699        N737   1.348       .  A
N700       N1034   1.321   1_545  A
N700        N730   1.325       .  A
N700       Co951   2.088   1_554  S
N701        N737   1.325       .  A
N701       Co916   2.087   1_554  S
N702       C1058   1.347       .  A
N702        N712   1.324       .  A
H703        C728   1.081       .  S
N704       N1024   1.322       .  A
N704        N725   1.326       .  A
N704       Co914   2.090   1_554  S
N705        N710   1.326       .  A
C706        N710   1.348       .  A
N707        C722   1.345       .  A
N707       N1027   1.321       .  A
N707       Co947   2.097   1_554  S
C708        C711   1.461       .  S
C708        H742   1.081       .  S
C708        N736   1.346       .  A
N712       N1045   1.321       .  A
N713        C739   1.343       .  A
N713       N1042   1.320       .  A
N713       Co729   2.093       .  S
N714        C728   1.345       .  A
N714       Co914   2.099   1_554  S
N715       N1040   1.321   1_545  A
N715        N743   1.326       .  A
N715       Co733   2.090       .  S
H716        C739   1.081       .  S
H717        C734   1.081       .  S
N718       N1039   1.322       .  A
N719       Co951   2.090   1_554  S
N720        N732   1.325       .  A
N720       Co729   2.089       .  S
C721        C735   1.457       .  S
C721       N1052   1.349   1_545  A
C722       C1068   1.460       .  S
C722        H726   1.081       .  S
N723        C734   1.342       .  A
N723       Co733   2.091       .  S
N725       C1048   1.349       .  A
C727       C1066   1.456       .  S
C727        N743   1.349   1_565  A
Co729       N801   2.087       .  S
Co729       N816   2.097       .  S
N730        C741   1.348   1_545  A
C731       N1029   1.348   1_545  A
Co733       N809   2.088       .  S
Co733       N828   2.090       .  S
C739       C1054   1.458       .  S
Cl740     Co1023   2.455   1_545  S
C741       C1049   1.457       .  S
C744        C749   1.398       .  A
C744        H750   1.082       .  S
C745        C746   1.410       .  A
C746        C747   1.405       .  A
C746        H751   1.082       .  S
C747        C748   1.409       .  A
C747        H752   1.082       .  S
C749        H753   1.083       .  S
C754       C1082   1.406       .  A
C754        C759   1.400       .  A
C754        H760   1.083       .  S
C755       C1081   1.407       .  A
C755        C756   1.407       .  A
C756        C757   1.401       .  A
C756        H761   1.083       .  S
C757        C758   1.407       .  A
C757        H762   1.083       .  S
C758       C1086   1.407       .  A
C759       C1085   1.406       .  A
C759        H763   1.083       .  S
C764        C765   1.409       .  A
C764        C769   1.409       .  A
C764        C864   1.493       .  S
C765       C1093   1.405       .  A
C765        H770   1.084       .  S
C766       C1092   1.403       .  A
C766        C767   1.401       .  A
C766        C830   1.469       .  S
C767        C768   1.401       .  A
C767        H771   1.084       .  S
C768       C1096   1.403       .  A
C768        C840   1.469       .  S
C769       C1095   1.404       .  A
C769        H772   1.084       .  S
C773        C774   1.410       .  A
C773        C778   1.410       .  A
C773        C867   1.493       .  S
C774       C1102   1.404       .  A
C774        H779   1.084       .  S
C775       C1101   1.402   1_565  A
C775        C776   1.400       .  A
C775        C850   1.468       .  S
C776        C777   1.400       .  A
C776        H780   1.084       .  S
C777       C1105   1.404   1_565  A
C777        C836   1.469       .  S
C778       C1104   1.404       .  A
C778        H781   1.084       .  S
C782        C783   1.413       .  A
C782        C787   1.414       .  A
C782        C854   1.505       .  S
C783        C784   1.407       .  A
C783        H788   1.083       .  S
C784        C785   1.402       .  A
C784        C808   1.477       .  S
C785        C786   1.402       .  A
C785        H789   1.084       .  S
C786        C787   1.408       .  A
C786        C815   1.477       .  S
C787        H790   1.083       .  S
C791        C792   1.414       .  A
C791        C796   1.413       .  A
C791        C857   1.505       .  S
C792        C793   1.408       .  A
C792        H797   1.083       .  S
C793        C794   1.402       .  A
C793        C800   1.476       .  S
C794        C795   1.401       .  A
C794        H798   1.084       .  S
C795        C796   1.406       .  A
C795        C820   1.476       .  S
C796        H799   1.083       .  S
C800        C837   1.461       .  S
N801        N818   1.325       .  A
C802        C840   1.458       .  S
C802        H847   1.081       .  S
C802        N827   1.344       .  A
H803        C844   1.081       .  S
C804        H833   1.081       .  S
C804        N828   1.342       .  A
Co805       N932   2.099       .  S
Co805       N922   2.090       .  S
Co805       N845   2.100       .  S
Co805       N821   2.086       .  S
Co805     Cl1176   2.456       .  S
N806        C844   1.343       .  A
N806       N1140   1.322       .  A
Co807       N915   2.091       .  S
Co807       N919   2.087       .  S
Co807       N827   2.093       .  S
Co807       N814   2.085       .  S
Co807      Cl849   2.460       .  S
C808        N846   1.348       .  A
N809       N1143   1.321   1_545  A
N809        N839   1.325       .  A
N810        N846   1.325       .  A
N811       C1167   1.347       .  A
N811        N821   1.324       .  A
H812        C837   1.081       .  S
N813       N1133   1.322       .  A
N813        N834   1.326       .  A
N814        N819   1.326       .  A
C815        N819   1.348       .  A
N816        C831   1.345       .  A
N816       N1136   1.321       .  A
C817        C820   1.461       .  S
C817        H851   1.081       .  S
C817        N845   1.346       .  A
N821       N1154   1.321       .  A
N822        C848   1.343       .  A
N822       N1151   1.320       .  A
N822       Co838   2.093       .  S
N823        C837   1.345       .  A
N824       N1149   1.321   1_545  A
N824        N852   1.326       .  A
N824       Co842   2.090       .  S
H825        C848   1.081       .  S
H826        C843   1.081       .  S
N827       N1148   1.322       .  A
N829        N841   1.325       .  A
N829       Co838   2.089       .  S
C830        C844   1.457       .  S
C830       N1161   1.349   1_545  A
C831       C1177   1.460       .  S
C831        H835   1.081       .  S
N832        C843   1.342       .  A
N832       Co842   2.091       .  S
N834       C1157   1.349       .  A
C836       C1175   1.456       .  S
C836        N852   1.349   1_565  A
Co838       N910   2.087       .  S
Co838       N925   2.097       .  S
N839        C850   1.348   1_545  A
C840       N1138   1.348   1_545  A
Co842       N918   2.088       .  S
Co842       N937   2.090       .  S
C848       C1163   1.458       .  S
Cl849     Co1132   2.455   1_545  S
C850       C1158   1.457       .  S
C853        C858   1.398       .  A
C853        H859   1.082       .  S
C854        C855   1.410       .  A
C855        C856   1.405       .  A
C855        H860   1.082       .  S
C856        C857   1.409       .  A
C856        H861   1.082       .  S
C858        H862   1.083       .  S
C863       C1191   1.406       .  A
C863        C868   1.400       .  A
C863        H869   1.083       .  S
C864       C1190   1.407       .  A
C864        C865   1.407       .  A
C865        C866   1.401       .  A
C865        H870   1.083       .  S
C866        C867   1.407       .  A
C866        H871   1.083       .  S
C867       C1195   1.407       .  A
C868       C1194   1.406       .  A
C868        H872   1.083       .  S
C873        C874   1.409       .  A
C873        C878   1.409       .  A
C873        C973   1.493       .  S
C874       C1202   1.405       .  A
C874        H879   1.084       .  S
C875       C1201   1.403       .  A
C875        C876   1.401       .  A
C875        C939   1.469       .  S
C876        C877   1.401       .  A
C876        H880   1.084       .  S
C877       C1205   1.403       .  A
C877        C949   1.469       .  S
C878       C1204   1.404       .  A
C878        H881   1.084       .  S
C882        C883   1.410       .  A
C882        C887   1.410       .  A
C882        C976   1.493       .  S
C883       C1211   1.404       .  A
C883        H888   1.084       .  S
C884       C1210   1.402   1_565  A
C884        C885   1.400       .  A
C884        C959   1.468       .  S
C885        C886   1.400       .  A
C885        H889   1.084       .  S
C886       C1214   1.404   1_565  A
C886        C945   1.469       .  S
C887       C1213   1.404       .  A
C887        H890   1.084       .  S
C891        C892   1.413       .  A
C891        C896   1.414       .  A
C891        C963   1.505       .  S
C892        C893   1.407       .  A
C892        H897   1.083       .  S
C893        C894   1.402       .  A
C893        C917   1.477       .  S
C894        C895   1.402       .  A
C894        H898   1.084       .  S
C895        C896   1.408       .  A
C895        C924   1.477       .  S
C896        H899   1.083       .  S
C900        C901   1.414       .  A
C900        C905   1.413       .  A
C900        C966   1.505       .  S
C901        C902   1.408       .  A
C901        H906   1.083       .  S
C902        C903   1.402       .  A
C902        C909   1.476       .  S
C903        C904   1.401       .  A
C903        H907   1.084       .  S
C904        C905   1.406       .  A
C904        C929   1.476       .  S
C905        H908   1.083       .  S
C909        C946   1.461       .  S
N910        N927   1.325       .  A
C911        C949   1.458       .  S
C911        H956   1.081       .  S
C911        N936   1.344       .  A
H912        C953   1.081       .  S
C913        H942   1.081       .  S
C913        N937   1.342       .  A
Co914       N954   2.100       .  S
Co914       N930   2.086       .  S
Co914     Cl1285   2.456       .  S
N915        C953   1.343       .  A
N915       N1249   1.322       .  A
Co916       N936   2.093       .  S
Co916       N923   2.085       .  S
Co916      Cl958   2.460       .  S
C917        N955   1.348       .  A
N918       N1252   1.321   1_545  A
N918        N948   1.325       .  A
N919        N955   1.325       .  A
N920       C1276   1.347       .  A
N920        N930   1.324       .  A
H921        C946   1.081       .  S
N922       N1242   1.322       .  A
N922        N943   1.326       .  A
N923        N928   1.326       .  A
C924        N928   1.348       .  A
N925        C940   1.345       .  A
N925       N1245   1.321       .  A
C926        C929   1.461       .  S
C926        H960   1.081       .  S
C926        N954   1.346       .  A
N930       N1263   1.321       .  A
N931        C957   1.343       .  A
N931       N1260   1.320       .  A
N931       Co947   2.093       .  S
N932        C946   1.345       .  A
N933       N1258   1.321   1_545  A
N933        N961   1.326       .  A
N933       Co951   2.090       .  S
H934        C957   1.081       .  S
H935        C952   1.081       .  S
N936       N1257   1.322       .  A
N938        N950   1.325       .  A
N938       Co947   2.089       .  S
C939        C953   1.457       .  S
C939       N1270   1.349   1_545  A
C940       C1286   1.460       .  S
C940        H944   1.081       .  S
N941        C952   1.342       .  A
N941       Co951   2.091       .  S
N943       C1266   1.349       .  A
C945       C1284   1.456       .  S
C945        N961   1.349   1_565  A
N948        C959   1.348   1_545  A
C949       N1247   1.348   1_545  A
C957       C1272   1.458       .  S
Cl958     Co1241   2.455   1_545  S
C959       C1267   1.457       .  S
C962        C967   1.398       .  A
C962        H968   1.082       .  S
C963        C964   1.410       .  A
C964        C965   1.405       .  A
C964        H969   1.082       .  S
C965        C966   1.409       .  A
C965        H970   1.082       .  S
C967        H971   1.083       .  S
C972       C1300   1.406       .  A
C972        C977   1.400       .  A
C972        H978   1.083       .  S
C973       C1299   1.407       .  A
C973        C974   1.407       .  A
C974        C975   1.401       .  A
C974        H979   1.083       .  S
C975        C976   1.407       .  A
C975        H980   1.083       .  S
C976       C1304   1.407       .  A
C977       C1303   1.406       .  A
C977        H981   1.083       .  S
C982        C983   1.409       .  A
C982        C987   1.409       .  A
C982       C1082   1.490       .  S
C983        H988   1.084       .  S
C984        C985   1.402       .  A
C984       C1048   1.471       .  S
C985        C986   1.401       .  A
C985        H989   1.084       .  S
C986       C1058   1.470       .  S
C987        H990   1.084       .  S
C991        C992   1.409       .  A
C991        C996   1.410       .  A
C991       C1085   1.490       .  S
C992        H997   1.084       .  S
C993        C994   1.401       .  A
C993       C1068   1.470       .  S
C994        C995   1.401       .  A
C994        H998   1.084       .  S
C995       C1054   1.471       .  S
C996        H999   1.084       .  S
C1000      C1001   1.411       .  A
C1000      C1005   1.412       .  A
C1000      C1072   1.500       .  S
C1001      C1002   1.405       .  A
C1001      H1006   1.083       .  S
C1002      C1003   1.402       .  A
C1002      C1026   1.473       .  S
C1003      C1004   1.402       .  A
C1003      H1007   1.084       .  S
C1004      C1005   1.406       .  A
C1004      C1033   1.474       .  S
C1005      H1008   1.084       .  S
C1009      C1010   1.413       .  A
C1009      C1014   1.412       .  A
C1009      C1075   1.501       .  S
C1010      C1011   1.407       .  A
C1010      H1015   1.083       .  S
C1011      C1012   1.402       .  A
C1011      C1018   1.477       .  S
C1012      C1013   1.402       .  A
C1012      H1016   1.084       .  S
C1013      C1014   1.405       .  A
C1013      C1038   1.475       .  S
C1014      H1017   1.083       .  S
C1018      C1055   1.463       .  S
N1019      N1036   1.325       .  A
N1019     Co1274   2.086   1_554  S
C1020      C1058   1.460       .  S
C1020      H1065   1.081       .  S
C1020      N1045   1.345       .  A
H1021      C1062   1.081       .  S
C1022      H1051   1.081       .  S
C1022      N1046   1.341       .  A
Co1023     N1150   2.103       .  S
Co1023     N1140   2.089   1_565  S
Co1023     N1063   2.101       .  S
Co1023     N1039   2.088   1_565  S
N1024      C1062   1.344       .  A
N1024     Co1243   2.095   1_554  S
Co1025     N1133   2.095       .  S
Co1025     N1137   2.087       .  S
Co1025     N1045   2.096       .  S
Co1025     N1032   2.087       .  S
Co1025    Cl1067   2.459       .  S
C1026      N1064   1.348       .  A
N1027      N1057   1.325       .  A
N1027     Co1278   2.083   1_554  S
N1028      N1064   1.325       .  A
N1028     Co1243   2.087   1_554  S
N1029      N1039   1.325   1_565  A
H1030      C1055   1.081       .  S
N1031      N1052   1.325   1_545  A
N1031     Co1241   2.089   1_544  S
N1032      N1037   1.325       .  A
C1033      N1037   1.349       .  A
N1034      C1049   1.343       .  A
N1034     Co1274   2.089   1_554  S
C1035      C1038   1.461       .  S
C1035      H1069   1.081       .  S
C1035      N1063   1.346       .  A
N1040      C1066   1.342       .  A
N1040     Co1056   2.088       .  S
N1041      C1055   1.346       .  A
N1041     Co1241   2.103   1_554  S
N1042      N1070   1.326       .  A
N1042     Co1060   2.086       .  S
H1043      C1066   1.081       .  S
H1044      C1061   1.081       .  S
N1046     Co1278   2.086   1_554  S
N1047      N1059   1.325       .  A
N1047     Co1056   2.086       .  S
C1048      C1062   1.458       .  S
C1049      H1053   1.081       .  S
N1050      C1061   1.341       .  A
N1050     Co1060   2.086       .  S
C1054      N1070   1.349       .  A
Co1056     N1128   2.086       .  S
Co1056     N1143   2.089       .  S
N1057      C1068   1.347       .  A
Co1060     N1136   2.083       .  S
Co1060     N1155   2.086       .  S
C1071      C1076   1.397       .  A
C1071      H1077   1.082       .  S
C1072      C1073   1.408       .  A
C1073      C1074   1.403       .  A
C1073      H1078   1.083       .  S
C1074      C1075   1.408       .  A
C1074      H1079   1.082       .  S
C1076      H1080   1.083       .  S
C1081      C1086   1.402       .  A
C1081      H1087   1.083       .  S
C1082      C1083   1.406   1_545  A
C1083      C1084   1.400       .  A
C1083      H1088   1.083       .  S
C1084      C1085   1.406   1_565  A
C1084      H1089   1.083       .  S
C1086      H1090   1.083       .  S
C1091      C1092   1.409       .  A
C1091      C1096   1.409       .  A
C1091      C1191   1.490       .  S
C1092      H1097   1.084       .  S
C1093      C1094   1.402       .  A
C1093      C1157   1.471       .  S
C1094      C1095   1.401       .  A
C1094      H1098   1.084       .  S
C1095      C1167   1.470       .  S
C1096      H1099   1.084       .  S
C1100      C1101   1.409       .  A
C1100      C1105   1.410       .  A
C1100      C1194   1.490       .  S
C1101      H1106   1.084       .  S
C1102      C1103   1.401       .  A
C1102      C1177   1.470       .  S
C1103      C1104   1.401       .  A
C1103      H1107   1.084       .  S
C1104      C1163   1.471       .  S
C1105      H1108   1.084       .  S
C1109      C1110   1.411       .  A
C1109      C1114   1.412       .  A
C1109      C1181   1.500       .  S
C1110      C1111   1.405       .  A
C1110      H1115   1.083       .  S
C1111      C1112   1.402       .  A
C1111      C1135   1.473       .  S
C1112      C1113   1.402       .  A
C1112      H1116   1.084       .  S
C1113      C1114   1.406       .  A
C1113      C1142   1.474       .  S
C1114      H1117   1.084       .  S
C1118      C1119   1.413       .  A
C1118      C1123   1.412       .  A
C1118      C1184   1.501       .  S
C1119      C1120   1.407       .  A
C1119      H1124   1.083       .  S
C1120      C1121   1.402       .  A
C1120      C1127   1.477       .  S
C1121      C1122   1.402       .  A
C1121      H1125   1.084       .  S
C1122      C1123   1.405       .  A
C1122      C1147   1.475       .  S
C1123      H1126   1.083       .  S
C1127      C1164   1.463       .  S
N1128      N1145   1.325       .  A
C1129      C1167   1.460       .  S
C1129      H1174   1.081       .  S
C1129      N1154   1.345       .  A
H1130      C1171   1.081       .  S
C1131      H1160   1.081       .  S
C1131      N1155   1.341       .  A
Co1132     N1259   2.103       .  S
Co1132     N1249   2.089   1_565  S
Co1132     N1172   2.101       .  S
Co1132     N1148   2.088   1_565  S
N1133      C1171   1.344       .  A
Co1134     N1242   2.095       .  S
Co1134     N1246   2.087       .  S
Co1134     N1154   2.096       .  S
Co1134     N1141   2.087       .  S
Co1134    Cl1176   2.459       .  S
C1135      N1173   1.348       .  A
N1136      N1166   1.325       .  A
N1137      N1173   1.325       .  A
N1138      N1148   1.325   1_565  A
H1139      C1164   1.081       .  S
N1140      N1161   1.325   1_545  A
N1141      N1146   1.325       .  A
C1142      N1146   1.349       .  A
N1143      C1158   1.343       .  A
C1144      C1147   1.461       .  S
C1144      H1178   1.081       .  S
C1144      N1172   1.346       .  A
N1149      C1175   1.342       .  A
N1149     Co1165   2.088       .  S
N1150      C1164   1.346       .  A
N1151      N1179   1.326       .  A
N1151     Co1169   2.086       .  S
H1152      C1175   1.081       .  S
H1153      C1170   1.081       .  S
N1156      N1168   1.325       .  A
N1156     Co1165   2.086       .  S
C1157      C1171   1.458       .  S
C1158      H1162   1.081       .  S
N1159      C1170   1.341       .  A
N1159     Co1169   2.086       .  S
C1163      N1179   1.349       .  A
Co1165     N1237   2.086       .  S
Co1165     N1252   2.089       .  S
N1166      C1177   1.347       .  A
Co1169     N1245   2.083       .  S
Co1169     N1264   2.086       .  S
C1180      C1185   1.397       .  A
C1180      H1186   1.082       .  S
C1181      C1182   1.408       .  A
C1182      C1183   1.403       .  A
C1182      H1187   1.083       .  S
C1183      C1184   1.408       .  A
C1183      H1188   1.082       .  S
C1185      H1189   1.083       .  S
C1190      C1195   1.402       .  A
C1190      H1196   1.083       .  S
C1191      C1192   1.406   1_545  A
C1192      C1193   1.400       .  A
C1192      H1197   1.083       .  S
C1193      C1194   1.406   1_565  A
C1193      H1198   1.083       .  S
C1195      H1199   1.083       .  S
C1200      C1201   1.409       .  A
C1200      C1205   1.409       .  A
C1200      C1300   1.490       .  S
C1201      H1206   1.084       .  S
C1202      C1203   1.402       .  A
C1202      C1266   1.471       .  S
C1203      C1204   1.401       .  A
C1203      H1207   1.084       .  S
C1204      C1276   1.470       .  S
C1205      H1208   1.084       .  S
C1209      C1210   1.409       .  A
C1209      C1214   1.410       .  A
C1209      C1303   1.490       .  S
C1210      H1215   1.084       .  S
C1211      C1212   1.401       .  A
C1211      C1286   1.470       .  S
C1212      C1213   1.401       .  A
C1212      H1216   1.084       .  S
C1213      C1272   1.471       .  S
C1214      H1217   1.084       .  S
C1218      C1219   1.411       .  A
C1218      C1223   1.412       .  A
C1218      C1290   1.500       .  S
C1219      C1220   1.405       .  A
C1219      H1224   1.083       .  S
C1220      C1221   1.402       .  A
C1220      C1244   1.473       .  S
C1221      C1222   1.402       .  A
C1221      H1225   1.084       .  S
C1222      C1223   1.406       .  A
C1222      C1251   1.474       .  S
C1223      H1226   1.084       .  S
C1227      C1228   1.413       .  A
C1227      C1232   1.412       .  A
C1227      C1293   1.501       .  S
C1228      C1229   1.407       .  A
C1228      H1233   1.083       .  S
C1229      C1230   1.402       .  A
C1229      C1236   1.477       .  S
C1230      C1231   1.402       .  A
C1230      H1234   1.084       .  S
C1231      C1232   1.405       .  A
C1231      C1256   1.475       .  S
C1232      H1235   1.083       .  S
C1236      C1273   1.463       .  S
N1237      N1254   1.325       .  A
C1238      C1276   1.460       .  S
C1238      H1283   1.081       .  S
C1238      N1263   1.345       .  A
H1239      C1280   1.081       .  S
C1240      H1269   1.081       .  S
C1240      N1264   1.341       .  A
Co1241     N1281   2.101       .  S
Co1241     N1257   2.088   1_565  S
N1242      C1280   1.344       .  A
Co1243     N1263   2.096       .  S
Co1243     N1250   2.087       .  S
Co1243    Cl1285   2.459       .  S
C1244      N1282   1.348       .  A
N1245      N1275   1.325       .  A
N1246      N1282   1.325       .  A
N1247      N1257   1.325   1_565  A
H1248      C1273   1.081       .  S
N1249      N1270   1.325   1_545  A
N1250      N1255   1.325       .  A
C1251      N1255   1.349       .  A
N1252      C1267   1.343       .  A
C1253      C1256   1.461       .  S
C1253      H1287   1.081       .  S
C1253      N1281   1.346       .  A
N1258      C1284   1.342       .  A
N1258     Co1274   2.088       .  S
N1259      C1273   1.346       .  A
N1260      N1288   1.326       .  A
N1260     Co1278   2.086       .  S
H1261      C1284   1.081       .  S
H1262      C1279   1.081       .  S
N1265      N1277   1.325       .  A
N1265     Co1274   2.086       .  S
C1266      C1280   1.458       .  S
C1267      H1271   1.081       .  S
N1268      C1279   1.341       .  A
N1268     Co1278   2.086       .  S
C1272      N1288   1.349       .  A
N1275      C1286   1.347       .  A
C1289      C1294   1.397       .  A
C1289      H1295   1.082       .  S
C1290      C1291   1.408       .  A
C1291      C1292   1.403       .  A
C1291      H1296   1.083       .  S
C1292      C1293   1.408       .  A
C1292      H1297   1.082       .  S
C1294      H1298   1.083       .  S
C1299      C1304   1.402       .  A
C1299      H1305   1.083       .  S
C1300      C1301   1.406   1_545  A
C1301      C1302   1.400       .  A
C1301      H1306   1.083       .  S
C1302      C1303   1.406   1_565  A
C1302      H1307   1.083       .  S
C1304      H1308   1.083       .  S
