geometry optimzed in LAMMPS
_audit_creation_date              2020-11-30 
_audit_creation_method            'lammps2cif' 
_symmetry_space_group_name_H-M    'P1' 
_symmetry_Int_Tables_number       1 
_symmetry_cell_setting            triclinic 
loop_ 
_symmetry_equiv_pos_as_xyz 
  x,y,z 
_cell_length_a                    31.89237005 
_cell_length_b                    31.104717087918015 
_cell_length_c                    67.09085431985692 
_cell_angle_alpha                 89.9041619678411 
_cell_angle_beta                  92.35560524799432 
_cell_angle_gamma                 124.24501909482285 
loop_ 
_atom_site_label 
_atom_site_type_symbol 
_atom_site_fract_x 
_atom_site_fract_y 
_atom_site_fract_z 
_atom_site_charge 
O1          O  0.32892473  0.27855326  0.98400503    -0.80500
O2          O  0.31422546  0.10540898  0.03803064    -0.65200
O3          O  0.35252781  0.21535194  0.00137869    -1.11800
C4          C  0.27519784  0.05643776  0.96370949     1.06400
O5          O  0.31555288  0.04750391  0.01698086    -0.78400
O6          O  0.40721156  0.13821698  0.97641283    -0.66000
Ni7        Ni  0.37296613  0.28221740  0.00618425     1.34900
C8          C  0.41869334  0.18035228  0.96795327     0.85100
O9          O  0.40641543  0.20599613  0.03005964    -0.78900
O10         O  0.42135320  0.28669755  0.02762355    -0.89200
C11         C  0.30613732  0.05959822  0.03378297     0.84700
O12         O  0.31998126  0.26579304  0.02427299    -0.67400
O13         O  0.30175421  0.04691330  0.97581627    -0.86700
C14         C  0.30620540  0.23679295  0.03934120     0.85500
C15         C  0.43513656  0.25609401  0.03369436     1.07100
H16         H  0.29287250  0.09928571  0.99993160     0.38900
O17         O  0.32821519  0.12740526  0.99929068    -1.09400
O18         O  0.38869556  0.19547524  0.96857399    -0.66000
Ni19       Ni  0.32197869  0.16617514  0.98026560     1.26300
O20         O  0.32042637  0.20478462  0.04188839    -0.66200
O21         O  0.28539245  0.10373020  0.96208497    -0.78500
C22         C  0.31317446  0.25300225  0.96717744     0.84900
O23         O  0.31193241  0.21115097  0.96348901    -0.65700
Ni24       Ni  0.35810574  0.09189685  0.99604459     1.27400
Ni25       Ni  0.33307690  0.16654081  0.02153668     1.26100
H26         H  0.38676940  0.22584459  0.99912413     0.39500
O27         O  0.28248796  0.03968424  0.48234580    -0.80500
O28         O  0.27991437  0.17807072  0.52150093    -0.65200
O29         O  0.31482405  0.12297049  0.50312329    -1.11800
C30         C  0.43589061  0.27426072  0.46896172     1.06400
O31         O  0.32803021  0.26566123  0.52016300    -0.78400
O32         O  0.32875104  0.26441484  0.48078325    -0.66000
Ni33       Ni  0.33493102  0.07515863  0.50258620     1.34900
C34         C  0.29228822  0.22000958  0.47408178     0.85100
O35         O  0.29331814  0.10433093  0.54151724    -0.78900
O36         O  0.28957017  0.03880877  0.52408619    -0.89200
C37         C  0.28697102  0.22309908  0.52473941     0.84700
O38         O  0.39538213  0.10759661  0.52049970    -0.67400
O39         O  0.43368056  0.30079293  0.48310679    -0.86700
C40         C  0.41857669  0.14896542  0.53109230     0.85500
C41         C  0.27624274  0.05493231  0.53862960     1.07100
H42         H  0.40959080  0.23041241  0.50815409     0.38900
O43         O  0.37467808  0.21890000  0.50554269    -1.09400
O44         O  0.29468482  0.17976752  0.47601373    -0.66000
Ni45       Ni  0.35098363  0.17090640  0.48353151     1.26300
O46         O  0.39793271  0.17329530  0.53365979    -0.66200
O47         O  0.39965870  0.22531926  0.46542835    -0.78500
C48         C  0.29292023  0.05985780  0.46518823     0.84900
O49         O  0.32166750  0.11111382  0.46337940    -0.65700
Ni50       Ni  0.38005168  0.28205256  0.50172985     1.27400
Ni51       Ni  0.33583559  0.16828918  0.52558493     1.26100
H52         H  0.27867216  0.10557350  0.50045895     0.39500
O53         O  0.32186625  0.00320929  0.76939055    -0.74000
O54         O  0.29820754  0.43380470  0.72083494    -0.74100
O55         O  0.28459462  0.40970312  0.76058271    -0.74100
O56         O  0.33154793  0.02600496  0.72961804    -0.74200
O57         O  0.41051172  0.04560914  0.73150775    -0.74100
O58         O  0.36012092  0.42141877  0.76191924    -0.74100
O59         O  0.37554199  0.44950171  0.72224019    -0.74100
O60         O  0.39935855  0.01986341  0.77161961    -0.74100
Ni61       Ni  0.30888387  0.47063408  0.74510425     1.25400
Ni62       Ni  0.39061651  0.48505730  0.74765558     1.25400
C63         C  0.36308090  0.01939320  0.77950551     0.88100
C64         C  0.33311033  0.43247237  0.71275172     0.88100
C65         C  0.31479513  0.39835887  0.76794759     0.88100
C66         C  0.37688728  0.05157562  0.72361026     0.88300
O67         O  0.08244203  0.04692776  0.72917620    -0.74000
O68         O  0.04280343  0.10679188  0.76819907    -0.74100
O69         O  0.04147410  0.10138779  0.72721290    -0.74100
O70         O  0.08372406  0.05109374  0.77015149    -0.74200
O71         O  0.16155680  0.12459583  0.77036474    -0.74100
O72         O  0.11882292  0.17538863  0.72842114    -0.74100
O73         O  0.12074576  0.17965017  0.76900525    -0.74100
O74         O  0.15962120  0.12122102  0.72973001    -0.74100
Ni75       Ni  0.05975075  0.07376709  0.74873293     1.25400
Ni76       Ni  0.14287723  0.15268790  0.74943767     1.25400
C77         C  0.12638213  0.07630479  0.72199515     0.88100
C78         C  0.07595666  0.15248342  0.77557910     0.88100
C79         C  0.07446847  0.14558031  0.72006596     0.88100
C80         C  0.12882141  0.08099945  0.77787135     0.88300
O81         O  0.00861064  0.38514774  0.76515538    -0.74000
O82         O  0.39969217  0.30967962  0.72685931    -0.74100
O83         O  0.41167843  0.31417163  0.76775585    -0.74100
O84         O  0.99830607  0.38045030  0.72431317    -0.74200
O85         O  0.01245680  0.31802529  0.72414804    -0.74100
O86         O  0.42329485  0.25003100  0.76577381    -0.74100
O87         O  0.41429769  0.24792891  0.72469711    -0.74100
O88         O  0.02129886  0.32178125  0.76477056    -0.74100
Ni89       Ni  0.45456762  0.35001680  0.74606120     1.25400
Ni90       Ni  0.46892443  0.28273312  0.74460402     1.25400
C91         C  0.03060515  0.36419285  0.77245785     0.88100
C92         C  0.39168558  0.26881920  0.71814598     0.88100
C93         C  0.40707892  0.27361665  0.77493498     0.88100
C94         C  0.01921530  0.35946883  0.71686104     0.88300
C95         C  0.01449253  0.21067798  0.54386294     0.02700
C96         C  0.46081571  0.16034324  0.54613719     0.02600
C97         C  0.43974512  0.14277465  0.56497321    -0.17900
C98         C  0.46946767  0.15787748  0.58265505     0.02700
C99         C  0.02381113  0.20595599  0.58031241     0.02600
C100        C  0.04464024  0.22443040  0.56183125    -0.17900
H101        H  0.08579569  0.24893635  0.56149478     0.04700
H102        H  0.39876844  0.11880649  0.56616457     0.04700
C103        C  0.21632330  0.46013144  0.55326905     0.02700
C104        C  0.24024767  0.01462997  0.55346026     0.02600
C105        C  0.23232274  0.03600235  0.57053545    -0.17900
C106        C  0.20251678  0.00506522  0.58602462     0.02700
C107        C  0.18834264  0.45680214  0.58712082     0.02600
C108        C  0.19331854  0.43300991  0.57071765    -0.17900
H109        H  0.17590906  0.39146955  0.57143220     0.04700
H110        H  0.24923884  0.07740054  0.57197481     0.04700
C111        C  0.27403035  0.29953061  0.94826264     0.02700
C112        C  0.30319546  0.27665788  0.94957101     0.02600
C113        C  0.32673270  0.27558269  0.93240063    -0.17900
C114        C  0.32208857  0.29408741  0.91416315     0.02700
C115        C  0.29265831  0.31492701  0.91240649     0.02600
C116        C  0.26954097  0.31782258  0.92934534    -0.17900
H117        H  0.24712660  0.33398232  0.92759240     0.04700
H118        H  0.34928503  0.25937281  0.93303554     0.04700
C119        C  0.25472613  0.22906055  0.53895503     0.02700
C120        C  0.24628419  0.27071150  0.53776289     0.02600
C121        C  0.25646431  0.30092314  0.55508930    -0.17900
C122        C  0.26891353  0.28895924  0.57350728     0.02700
C123        C  0.27047169  0.24456552  0.57525029     0.02600
C124        C  0.26114249  0.21404797  0.55815912    -0.17900
H125        H  0.26767599  0.18346361  0.55955567     0.04700
H126        H  0.24896964  0.33090319  0.55485104     0.04700
C127        C  0.20215783  0.45672108  0.95032252     0.02700
C128        C  0.23354155  0.01332082  0.94900379     0.02600
C129        C  0.22910526  0.03538484  0.93126462    -0.17900
C130        C  0.19868452  0.00584437  0.91471556     0.02700
C131        C  0.17444703  0.45390762  0.91515628     0.02600
C132        C  0.17743392  0.42924961  0.93199056    -0.17900
H133        H  0.15750363  0.38721114  0.93101106     0.04700
H134        H  0.25070607  0.07719975  0.92967115     0.04700
C135        C  0.01348275  0.23688231  0.94899918     0.02700
C136        C  0.45531017  0.19985327  0.95097049     0.02600
C137        C  0.42558866  0.17147363  0.93370757    -0.17900
C138        C  0.44671290  0.17249408  0.91599876     0.02700
C139        C  0.00007619  0.20391897  0.91418087     0.02600
C140        C  0.03138191  0.23778440  0.92981213    -0.17900
H141        H  0.07107669  0.26510817  0.92676166     0.04700
H142        H  0.38445634  0.14532464  0.93410594     0.04700
O143        O  0.16323048  0.21685891  0.48188627    -0.80500
O144        O  0.17798784  0.37251114  0.53739628    -0.65200
O145        O  0.12055713  0.26658705  0.49465362    -1.11800
C146        C  0.21180909  0.42782997  0.46086120     1.06400
O147        O  0.20660287  0.44260504  0.51778637    -0.78400
O148        O  0.09319622  0.37562874  0.47944800    -0.66000
Ni149      Ni  0.11180268  0.20523550  0.50051578     1.34900
C150        C  0.06971042  0.33462186  0.46859775     0.85100
O151        O  0.07680524  0.28015516  0.52294572    -0.78900
O152        O  0.06128598  0.19846291  0.51976647    -0.89200
C153        C  0.20163214  0.42339807  0.53508217     0.84700
O154        O  0.16413359  0.22638691  0.52134724    -0.67400
O155        O  0.19923765  0.44404627  0.47577122    -0.86700
C156        C  0.20666034  0.27001336  0.52412790     0.85500
C157        C  0.04903105  0.22980856  0.52631042     1.07100
H158        H  0.20741556  0.37851757  0.49747682     0.38900
O159        O  0.17076404  0.35849298  0.49641445    -1.09400
O160        O  0.08928325  0.30875870  0.46623244    -0.66000
Ni161      Ni  0.15311127  0.31456573  0.47388777     1.26300
O162        O  0.21071804  0.31247326  0.51902496    -0.66200
O163        O  0.19384836  0.37829041  0.45779856    -0.78500
C164        C  0.20293171  0.25888943  0.47542745     0.84900
O165        O  0.20954957  0.30445708  0.47744730    -0.65700
Ni166      Ni  0.15298755  0.40743691  0.49755698     1.27400
Ni167      Ni  0.14839263  0.31140142  0.51779084     1.26100
H168        H  0.08602266  0.25558219  0.49171602     0.39500
O169        O  0.05538810  0.31394792  0.01738864    -0.80500
O170        O  0.20872355  0.30755554  0.96158577    -0.65200
O171        O  0.12910540  0.32215230  0.99850530    -1.11800
C172        C  0.25628341  0.42790673  0.03249554     1.06400
O173        O  0.27523156  0.32348181  0.98240472    -0.78400
O174        O  0.26552043  0.31130765  0.02303287    -0.66000
Ni175      Ni  0.09881466  0.35791904  0.99624865     1.34900
C176        C  0.23807707  0.29650365  0.03814804     0.85100
O177        O  0.10277873  0.28324812  0.96106364    -0.78900
O178        O  0.05189833  0.30330566  0.97601867    -0.89200
C179        C  0.25029790  0.30926641  0.96534279     0.84700
O180        O  0.14340604  0.40821276  0.97625234    -0.67400
O181        O  0.28593647  0.41443442  0.02644119    -0.86700
C182        C  0.18221868  0.41768719  0.96708247     0.85500
C183        C  0.05810745  0.27591754  0.96340241     1.07100
H184        H  0.22471670  0.37998392  0.99803044     0.38900
O185        O  0.21434690  0.34478161  0.00020913    -1.09400
O186        O  0.20740866  0.31137453  0.04072382    -0.66000
Ni187      Ni  0.16834680  0.32477130  0.02055581     1.26300
O188        O  0.19500509  0.38546442  0.96751606    -0.66200
O189        O  0.20746392  0.39919282  0.02862450    -0.78500
C190        C  0.06648846  0.30045846  0.03392105     0.84900
O191        O  0.11045866  0.30587478  0.03769121    -0.65700
Ni192      Ni  0.28017852  0.36661491  0.00483125     1.27400
Ni193      Ni  0.16537628  0.31649953  0.97899432     1.26100
H194        H  0.10056698  0.28634463  0.99919715     0.39500
O195        O  0.46702553  0.19911751  0.23270103    -0.74000
O196        O  0.07566740  0.23276430  0.27219004    -0.74100
O197        O  0.06772730  0.22440689  0.23037670    -0.74100
O198        O  0.47886007  0.20444260  0.27461494    -0.74200
O199        O  0.44707742  0.11999957  0.27304966    -0.74100
O200        O  0.04286431  0.14198734  0.23308902    -0.74100
O201        O  0.04645122  0.14933972  0.27483326    -0.74100
O202        O  0.44067552  0.11586108  0.23240292    -0.74100
Ni203      Ni  0.02533048  0.21812087  0.25183448     1.25400
Ni204      Ni  0.99642946  0.12900671  0.25309133     1.25400
C205        C  0.43856525  0.15292297  0.22522087     0.88100
C206        C  0.07191815  0.19598825  0.28231102     0.88100
C207        C  0.06628068  0.18469091  0.22377769     0.88100
C208        C  0.45309334  0.15898383  0.28225309     0.88300
O209        O  0.47302547  0.42665063  0.27437078    -0.74000
O210        O  0.40156200  0.44851634  0.23376426    -0.74100
O211        O  0.39798155  0.43940261  0.27390898    -0.74100
O212        O  0.47778059  0.43826734  0.23347279    -0.74200
O213        O  0.42041752  0.35305763  0.22860446    -0.74100
O214        O  0.34324075  0.35351125  0.27062541    -0.74100
O215        O  0.34422683  0.36319496  0.23019921    -0.74100
O216        O  0.41942940  0.34182988  0.26921638    -0.74100
Ni217      Ni  0.43985484  0.44136646  0.25402404     1.25400
Ni218      Ni  0.37989584  0.34958166  0.24952866     1.25400
C219        C  0.44828938  0.38064457  0.28108365     0.88100
C220        C  0.36372745  0.40946503  0.22424217     0.88100
C221        C  0.35976066  0.39653066  0.27995935     0.88100
C222        C  0.45839128  0.39668530  0.22284007     0.88300
C223        C  0.27939946  0.02383570  0.44701719     0.02700
C224        C  0.24842256  0.46749834  0.44571069     0.02600
C225        C  0.24988005  0.44413470  0.42771672    -0.17900
C226        C  0.28335210  0.47242692  0.41255960     0.02700
C227        C  0.31388329  0.02616623  0.41432714     0.02600
C228        C  0.31063647  0.05082185  0.43095488    -0.17900
H229        H  0.33631465  0.09284593  0.43168613     0.04700
H230        H  0.22398157  0.40255901  0.42514009     0.04700
O231        O  0.11533081  0.46424506  0.22890844    -0.74000
O232        O  0.15926261  0.05762197  0.27520981    -0.74100
O233        O  0.16246178  0.06771872  0.23469652    -0.74100
O234        O  0.11012163  0.45405874  0.26946060    -0.74200
O235        O  0.18583937  0.46555907  0.27203484    -0.74100
O236        O  0.23543401  0.07441717  0.23492401    -0.74100
O237        O  0.23429462  0.06822076  0.27565435    -0.74100
O238        O  0.18902532  0.47149903  0.23117168    -0.74100
Ni239      Ni  0.13359030  0.01088008  0.25253398     1.25400
Ni240      Ni  0.21292093  0.01985681  0.25390307     1.25400
C241        C  0.14612511  0.45441095  0.22213808     0.88100
C242        C  0.20298977  0.07519586  0.28375761     0.88100
C243        C  0.20651061  0.08786784  0.22793044     0.88100
C244        C  0.14079837  0.44496733  0.27805948     0.88300
C245        C  0.27643761  0.46770610  0.04956732     0.02700
C246        C  0.29116232  0.02103178  0.05022748     0.02600
C247        C  0.30367177  0.04527980  0.06937065    -0.17900
C248        C  0.30649816  0.02145991  0.08633038     0.02700
C249        C  0.29517314  0.47279617  0.08548736     0.02600
C250        C  0.27871145  0.44519949  0.06742287    -0.17900
H251        H  0.26811727  0.40531947  0.06737073     0.04700
H252        H  0.31502824  0.08509534  0.07136363     0.04700
C253        C  0.25005715  0.21630919  0.46046262     0.02700
C254        C  0.23210309  0.25116068  0.45982701     0.02600
C255        C  0.21625226  0.25913688  0.44092146    -0.17900
C256        C  0.20876259  0.22913582  0.42395670     0.02700
C257        C  0.22190782  0.19297642  0.42507910     0.02600
C258        C  0.24114494  0.18639196  0.44302011    -0.17900
H259        H  0.25410166  0.16079009  0.44257198     0.04700
H260        H  0.20297153  0.28448080  0.43972728     0.04700
C261        C  0.27425016  0.24103850  0.05510939     0.02700
C262        C  0.24243960  0.26257999  0.05400417     0.02600
C263        C  0.21032992  0.25152195  0.07018598    -0.17900
C264        C  0.21157234  0.22733872  0.08758265     0.02700
C265        C  0.24643689  0.21343211  0.08950278     0.02600
C266        C  0.27564132  0.21902935  0.07347481    -0.17900
H267        H  0.30102275  0.20652191  0.07580974     0.04700
H268        H  0.18369940  0.26264851  0.06967970     0.04700
C269        C  0.47408976  0.30406977  0.45296274     0.02700
C270        C  0.02955771  0.32729110  0.45303348     0.02600
C271        C  0.05342811  0.34778361  0.43484936    -0.17900
C272        C  0.02757732  0.34632796  0.41729458     0.02700
C273        C  0.47385261  0.32853322  0.41802315     0.02600
C274        C  0.44896255  0.30613886  0.43554021    -0.17900
H275        H  0.40834220  0.28862865  0.43532823     0.04700
H276        H  0.09400662  0.36585014  0.43421662     0.04700
C277        C  0.02928323  0.28368948  0.05064408     0.02700
C278        C  0.47805431  0.27792365  0.04994841     0.02600
C279        C  0.46419062  0.29138338  0.06740904    -0.17900
C280        C  0.49329322  0.30594870  0.08531603     0.02700
C281        C  0.03646762  0.29940768  0.08701898     0.02600
C282        C  0.05302415  0.28959669  0.06975928    -0.17900
H283        H  0.08890118  0.29331708  0.07126875     0.04700
H284        H  0.42981494  0.29081694  0.06715070     0.07100
C285        C  0.06885639  0.35734676  0.32111279    -0.22100
C286        C  0.10004643  0.39023537  0.33725155     0.09900
C287        C  0.14538204  0.43797772  0.33348204     0.10300
C288        C  0.15965290  0.45109969  0.31383365    -0.17000
C289        C  0.12783501  0.41983718  0.29759088    -0.27400
C290        C  0.08120863  0.37264994  0.30125653     0.18600
C291        C  0.08246500  0.37892477  0.35793280     0.12600
C292        C  0.17782056  0.47579370  0.35033939    -0.11800
H293        H  0.19403910  0.48825081  0.31111624     0.12900
C294        C  0.04377297  0.33809241  0.28469812    -0.22600
H295        H  0.03371400  0.32082258  0.32389916     0.08500
C296        C  0.06340607  0.40545370  0.36652503     0.04900
C297        C  0.05269400  0.39984702  0.38675639    -0.19800
C298        C  0.05495971  0.36331012  0.39818621    -0.12100
C299        C  0.07552924  0.33752661  0.38968035     0.13600
C300        C  0.09018907  0.34674152  0.36976018    -0.22600
C301        C  0.05042197  0.43613971  0.35369048    -0.05600
H302        H  0.53467944  0.42036202  0.39186856     0.15100
C303        C  0.08052055  0.29887473  0.40110343    -0.15800
H304        H  0.10689832  0.32814365  0.36327006     0.09400
H305        H  0.00762588  0.33496760  0.28618700     0.07300
H306        H  0.03604761  0.29875904  0.28578744     0.08500
H307        H  0.05781988  0.35254823  0.26966660     0.07500
H308        H  0.18798839  0.45593943  0.36114864     0.02400
H309        H  0.15761871  0.48933929  0.35835765     0.02900
H310        H  0.21234098  0.51106926  0.34500839     0.06400
H311        H  0.53522355  0.45428281  0.36083177     0.05400
H312        H  0.02285265  0.40948000  0.34199673    -0.00400
H313        H  0.08316164  0.46677461  0.34570300     0.01100
H314        H  0.09472493  0.28121013  0.39159150     0.04700
H315        H  0.04305119  0.26722337  0.40637810     0.06700
H316        H  0.10836072  0.31832927  0.41391244     0.07500
C317        C  0.12975132  0.38959339  0.12820816    -0.22100
C318        C  0.11475556  0.35599823  0.14443156     0.09900
C319        C  0.08271056  0.30173106  0.14033845     0.10300
C320        C  0.05882987  0.28352005  0.12117209    -0.17000
C321        C  0.06990191  0.31808080  0.10560734    -0.27400
C322        C  0.10902902  0.37128705  0.10882584     0.18600
C323        C  0.12377427  0.37963548  0.16504354     0.12600
C324        C  0.07353719  0.26289078  0.15585380    -0.11800
H325        H  0.03062546  0.24233647  0.11841192     0.12900
C326        C  0.12783615  0.41041907  0.09245871    -0.22600
H327        H  0.15563246  0.43117781  0.13092169     0.08500
C328        C  0.14759686  0.37175864  0.18167882     0.04900
C329        C  0.14959324  0.39245866  0.20049986    -0.19800
C330        C  0.13413855  0.42609568  0.20290063    -0.12100
C331        C  0.11579313  0.43890206  0.18602234     0.13600
C332        C  0.10894414  0.41400370  0.16766642    -0.22600
C333        C  0.17645922  0.34733552  0.18019232    -0.05600
H334        H  0.16693238  0.38532609  0.21318065     0.15100
C335        C  0.10779364  0.48209247  0.18682041    -0.15800
H336        H  0.09282439  0.42241193  0.15506705     0.09400
H337        H  0.16870037  0.42742469  0.09059995     0.07300
H338        H  0.12340908  0.44220827  0.09650114     0.08500
H339        H  0.10753139  0.39338127  0.07784320     0.07500
H340        H  0.06018565  0.26945091  0.16975783     0.02400
H341        H  0.10875192  0.26609172  0.15951301     0.02900
H342        H  0.04678352  0.22232698  0.15018937     0.06400
H343        H  0.21514531  0.37319452  0.18730510     0.05400
H344        H  0.18134540  0.34090427  0.16456768    -0.00400
H345        H  0.15653336  0.31075404  0.18838449     0.01100
H346        H  0.14377496  0.51823650  0.19220838     0.04700
H347        H  0.07707678  0.47224763  0.19688978     0.06700
H348        H  0.09760086  0.49006781  0.17196573     0.07500
C349        C  0.24793194  0.10864673  0.33856385    -0.22100
C350        C  0.21382835  0.11923399  0.34548569     0.09900
C351        C  0.18150064  0.12172556  0.33126517     0.10300
C352        C  0.18150838  0.11077438  0.31113732    -0.17000
C353        C  0.21415329  0.09837192  0.30423960    -0.27400
C354        C  0.24958780  0.09953174  0.31814245     0.18600
C355        C  0.21591432  0.13148876  0.36724128     0.12600
C356        C  0.14558178  0.13514669  0.33639714    -0.11800
H357        H  0.15462698  0.11101301  0.30075872     0.12900
C358        C  0.28897611  0.09089567  0.31192877    -0.22600
H359        H  0.27223982  0.10585460  0.34936570     0.08500
C360        C  0.17380569  0.10411516  0.37957467     0.04900
C361        C  0.17740739  0.12294913  0.39899610    -0.19800
C362        C  0.22266420  0.16730263  0.40668812    -0.12100
C363        C  0.26618424  0.19125041  0.39526747     0.13600
C364        C  0.26173816  0.17388785  0.37559877    -0.22600
C365        C  0.12432513  0.05586081  0.37268586    -0.05600
H366        H  0.14416139  0.10414083  0.40790298     0.15100
C367        C  0.31705722  0.23736492  0.40283905    -0.15800
H368        H  0.29368101  0.19560460  0.36627855     0.09400
H369        H  0.31200126  0.09251511  0.32499672     0.07300
H370        H  0.31463463  0.12157102  0.30153258     0.08500
H371        H  0.27129173  0.05207881  0.30474741     0.07500
H372        H  0.14993922  0.14752623  0.35214603     0.02400
H373        H  0.10642624  0.10066745  0.33301844     0.02900
H374        H  0.15273905  0.16749132  0.32686423     0.06400
H375        H  0.09307906  0.06137894  0.37400159     0.05400
H376        H  0.11676418  0.02312325  0.38214507    -0.00400
H377        H  0.12490695  0.04600391  0.35700227     0.01100
H378        H  0.34534832  0.22729271  0.40266405     0.04700
H379        H  0.31708188  0.25018691  0.41822622     0.06700
H380        H  0.32894323  0.27044213  0.39289997     0.07500
C381        C  0.20119797  0.14612515  0.17884321    -0.22100
C382        C  0.24921784  0.16474290  0.17185356     0.09900
C383        C  0.28707349  0.17124393  0.18570884     0.10300
C384        C  0.27294666  0.14930346  0.20467416    -0.17000
C385        C  0.22245589  0.12307136  0.21050995    -0.27400
C386        C  0.18714023  0.12565357  0.19790157     0.18600
C387        C  0.25621964  0.17376777  0.14989429     0.12600
C388        C  0.34197020  0.20071930  0.18078298    -0.11800
H389        H  0.30149801  0.15216143  0.21487825     0.12900
C390        C  0.13419068  0.10611796  0.20383415    -0.22600
H391        H  0.17365456  0.14581445  0.16885068     0.08500
C392        C  0.22173892  0.13432287  0.13570741     0.04900
C393        C  0.22218332  0.14707728  0.11558041    -0.19800
C394        C  0.25606135  0.19773940  0.10920444    -0.12100
C395        C  0.29448856  0.23509298  0.12264366     0.13600
C396        C  0.29427482  0.22276502  0.14283458    -0.22600
C397        C  0.18440619  0.07849152  0.14151250    -0.05600
H398        H  0.19413419  0.11790965  0.10488767     0.15100
C399        C  0.33450702  0.28841769  0.11560210    -0.15800
H400        H  0.32251479  0.25248855  0.15309855     0.09400
H401        H  0.11159850  0.06399739  0.20666734     0.07300
H402        H  0.11279032  0.11130028  0.19180932     0.08500
H403        H  0.13622726  0.12785140  0.21735635     0.07500
H404        H  0.35781005  0.24271139  0.17966234     0.02400
H405        H  0.34578079  0.18554771  0.16654756     0.02900
H406        H  0.36515622  0.19774218  0.19272646     0.06400
H407        H  0.16331171  0.05289093  0.12823119     0.05400
H408        H  0.15550869  0.07451483  0.15128366    -0.00400
H409        H  0.20450136  0.06337898  0.14946791     0.01100
H410        H  0.31699648  0.30868371  0.11016607     0.04700
H411        H  0.35453366  0.28518664  0.10319004     0.06700
H412        H  0.36311759  0.31261428  0.12763160     0.07500
C413        C  0.44322323  0.40586589  0.33628901    -0.22100
C414        C  0.40570590  0.35576836  0.34205601     0.09900
C415        C  0.37662229  0.31704865  0.32723242     0.10300
C416        C  0.39388457  0.32530247  0.30794517    -0.17000
C417        C  0.43777996  0.37321227  0.30262883    -0.27400
C418        C  0.46118235  0.41508488  0.31691833     0.18600
C419        C  0.41232056  0.34083400  0.36230619     0.12600
C420        C  0.32890464  0.26595457  0.33188792    -0.11800
H421        H  0.37199273  0.29386457  0.29700962     0.12900
C422        C  0.50650449  0.46884339  0.31256269    -0.22600
H423        H  0.46225181  0.43670401  0.34754529     0.08500
C424        C  0.43027951  0.30848752  0.36442470     0.04900
C425        C  0.44273413  0.29946988  0.38341589    -0.19800
C426        C  0.44423195  0.32699185  0.40010880    -0.12100
C427        C  0.42695721  0.35999021  0.39820486     0.13600
C428        C  0.41046142  0.36598042  0.37926317    -0.22600
C429        C  0.44528506  0.29101444  0.34669582    -0.05600
H430        H  0.96255162  0.27785805  0.38417554     0.15100
C431        C  0.42864837  0.39099114  0.41579977    -0.15800
H432        H  0.39932803  0.39284347  0.37748908     0.09400
H433        H  0.53726451  0.46621607  0.30690200     0.07300
H434        H  0.52205868  0.49458266  0.32613501     0.08500
H435        H  0.49567685  0.48796145  0.30153757     0.07500
H436        H  0.32068997  0.26545942  0.34775821     0.02400
H437        H  0.33237209  0.23315118  0.32863357     0.02900
H438        H  0.29645962  0.26040379  0.32265956     0.06400
H439        H  0.97658537  0.28462480  0.35017175     0.05400
H440        H  0.46408169  0.32204786  0.33566259    -0.00400
H441        H  0.41195525  0.25568046  0.33938407     0.01100
H442        H  0.41585175  0.41648630  0.41145823     0.04700
H443        H  0.46809907  0.41609544  0.42228606     0.06700
H444        H  0.40336678  0.36424969  0.42729967     0.07500
C445        C  0.44280834  0.30945194  0.13470103    -0.22100
C446        C  0.47766986  0.36217943  0.14054392     0.09900
C447        C  0.50918099  0.39764865  0.12587823     0.10300
C448        C  0.50887277  0.37834678  0.10696795    -0.17000
C449        C  0.47980372  0.32497293  0.10250760    -0.27400
C450        C  0.44366090  0.29047321  0.11583031     0.18600
C451        C  0.48092659  0.37726370  0.16206480     0.12600
C452        C  0.54607542  0.45539626  0.12941272    -0.11800
H453        H  0.53424570  0.40491714  0.09600661     0.12900
C454        C  0.90394162  0.22530454  0.11010597    -0.22600
H455        H  0.41615949  0.28260133  0.14529302     0.08500
C456        C  0.48689843  0.35011098  0.17770971     0.04900
C457        C  0.48229064  0.35956263  0.19750566    -0.19800
C458        C  0.47566481  0.39842498  0.20267147    -0.12100
C459        C  0.47476970  0.42969867  0.18738290     0.13600
C460        C  0.47459099  0.41677213  0.16730086    -0.22600
C461        C  0.49695506  0.30964876  0.17442711    -0.05600
H462        H  0.48331605  0.33571553  0.20909855     0.15100
C463        C  0.47398172  0.47678252  0.19118152    -0.15800
H464        H  0.46903789  0.43758649  0.15566447     0.09400
H465        H  0.88349937  0.22261729  0.09588384     0.07300
H466        H  0.87460122  0.20377195  0.12123417     0.08500
H467        H  0.92425820  0.20622001  0.10797296     0.07500
H468        H  0.54800053  0.46887260  0.14475642     0.02400
H469        H  0.53551337  0.47630603  0.11919582     0.02900
H470        H  0.58470922  0.46648703  0.12613825     0.06400
H471        H  0.52883838  0.31715886  0.18461100     0.05400
H472        H  0.50760178  0.30939757  0.15900221    -0.00400
H473        H  0.46227073  0.27194128  0.17816666     0.01100
H474        H  0.50910906  0.51143011  0.18555762     0.04700
H475        H  0.47228573  0.48454035  0.20702409     0.06700
H476        H  0.44106357  0.47231753  0.18282177     0.07500
C477        C  0.30148914  0.39111135  0.37549082    -0.22100
C478        C  0.29323972  0.40821403  0.35730857     0.09900
C479        C  0.27672538  0.44160575  0.35740064     0.10300
C480        C  0.27226455  0.46029373  0.37562379    -0.17000
C481        C  0.28215919  0.44505551  0.39394841    -0.27400
C482        C  0.29518916  0.40828615  0.39386707     0.18600
C483        C  0.31128596  0.40025276  0.33850585     0.12600
C484        C  0.26638925  0.45955400  0.33810568    -0.11800
H485        H  0.26326333  0.48899977  0.37565445     0.12900
C486        C  0.30541815  0.38929393  0.41294020    -0.22600
H487        H  0.31483124  0.36595645  0.37534769     0.08500
C488        C  0.36036015  0.43852969  0.33258726     0.04900
C489        C  0.37298349  0.43807524  0.31295198    -0.19800
C490        C  0.33967071  0.39706866  0.29943313    -0.12100
C491        C  0.29167057  0.35640067  0.30586161     0.13600
C492        C  0.27688917  0.36101264  0.32474170    -0.22600
C493        C  0.39862854  0.48137700  0.34678296    -0.05600
H494        H  0.41028803  0.46909812  0.30849110     0.15100
C495        C  0.25604396  0.30821754  0.29319329    -0.15800
H496        H  0.23832162  0.33420144  0.32873328     0.09400
H497        H  0.31759523  0.36284146  0.40997210     0.07300
H498        H  0.27044745  0.36716268  0.42139379     0.08500
H499        H  0.33581499  0.42252205  0.42230917     0.07500
H500        H  0.22818821  0.42870307  0.33178623     0.02400
H501        H  0.29422043  0.46746978  0.32693994     0.02900
H502        H  0.26987042  0.49658997  0.34033274     0.06400
H503        H  0.43510933  0.50881845  0.33975376     0.05400
H504        H  0.40625484  0.46477753  0.35995415    -0.00400
H505        H  0.38290919  0.50310299  0.35171375     0.01100
H506        H  0.22046881  0.28075488  0.30076115     0.04700
H507        H  0.27391845  0.28692480  0.29048523     0.06700
H508        H  0.24641222  0.31887580  0.27875301     0.07500
C509        C  0.35013085  0.43900090  0.12820775    -0.22100
C510        C  0.32148810  0.43899045  0.14351970     0.09900
C511        C  0.28118957  0.44423773  0.13886547     0.10300
C512        C  0.26763301  0.44479758  0.11898067    -0.17000
C513        C  0.29805060  0.44840801  0.10377927    -0.27400
C514        C  0.33943519  0.44448641  0.10832067     0.18600
C515        C  0.33315057  0.43188903  0.16415796     0.12600
C516        C  0.25262438  0.45144188  0.15419611    -0.11800
H517        H  0.23669445  0.44901740  0.11543884     0.12900
C518        C  0.37490593  0.44926763  0.09297108    -0.22600
H519        H  0.38262930  0.43739111  0.13189417     0.08500
C520        C  0.32412947  0.38423687  0.17013284     0.04900
C521        C  0.32974834  0.37659160  0.19026538    -0.19800
C522        C  0.34791549  0.41701895  0.20443285    -0.12100
C523        C  0.36056446  0.46605300  0.19810988     0.13600
C524        C  0.35185764  0.47260597  0.17811332    -0.22600
C525        C  0.31085740  0.34222641  0.15524968    -0.05600
H526        H  0.32322295  0.33982442  0.19468224     0.15100
C527        C  0.38543609  0.51214078  0.21204445    -0.15800
H528        H  0.35996445  0.50961902  0.17325274     0.09400
H529        H  0.37481837  0.41351221  0.09280729     0.07300
H530        H  0.41403269  0.48322731  0.09692962     0.08500
H531        H  0.36440333  0.45455776  0.07769293     0.07500
H532        H  0.25687644  0.48897758  0.15225364     0.02400
H533        H  0.26357304  0.44970392  0.16981301     0.02900
H534        H  0.21262719  0.42065425  0.15155936     0.06400
H535        H  0.27517243  0.32972753  0.14674711     0.05400
H536        H  0.30667765  0.30854597  0.16271887    -0.00400
H537        H  0.34210475  0.35694863  0.14505993     0.01100
H538        H  0.39061630  0.54579909  0.20441534     0.04700
H539        H  0.42406047  0.52371261  0.21688388     0.06700
H540        H  0.36216034  0.50281844  0.22521018     0.07500
C541        C  0.39196927  0.09018501  0.32987932    -0.22100
C542        C  0.42334565  0.12781268  0.34457952     0.09900
C543        C  0.46275589  0.17781924  0.33861283     0.10300
C544        C  0.46838194  0.18905715  0.31805226    -0.17000
C545        C  0.43681670  0.15070427  0.30325295    -0.27400
C546        C  0.39800844  0.10043646  0.30947392     0.18600
C547        C  0.40796202  0.11414790  0.36564593     0.12600
C548        C  0.50136112  0.21775841  0.35366683    -0.11800
H549        H  0.50002561  0.22665864  0.31352053     0.12900
C550        C  0.36219610  0.05700486  0.29470756    -0.22600
H551        H  0.36146113  0.05250751  0.33451906     0.08500
C552        C  0.37399993  0.12433606  0.37342905     0.04900
C553        C  0.34481398  0.09612351  0.38955620    -0.19800
C554        C  0.35079195  0.05957615  0.39899954    -0.12100
C555        C  0.39026287  0.05491778  0.39314577     0.13600
C556        C  0.41691059  0.08064689  0.37609332    -0.22600
C557        C  0.36874682  0.16535706  0.36477703    -0.05600
H558        H  0.31618088  0.10166012  0.39451032     0.15100
C559        C  0.40866543  0.52817589  0.40464144    -0.15800
H560        H  0.44319019  0.07259828  0.37061236     0.09400
H561        H  0.32893005  0.02431452  0.30192897     0.07300
H562        H  0.38157605  0.04080343  0.28773813     0.08500
H563        H  0.34760649  0.07145338  0.28305958     0.07500
H564        H  0.52287085  0.20364475  0.36064975     0.02400
H565        H  0.48349448  0.22482033  0.36581653     0.02900
H566        H  0.52892510  0.25504374  0.34657941     0.06400
H567        H  0.34111968  0.16824936  0.37283607     0.05400
H568        H  0.35797881  0.15821996  0.34864911    -0.00400
H569        H  0.40523660  0.20283746  0.36682647     0.01100
H570        H  0.40288341  0.49557349  0.39537172     0.04700
H571        H  0.38844535  0.51275834  0.41862093     0.06700
H572        H  0.44974423  0.55501565  0.40888486     0.07500
C573        C  0.30800552  0.07999517  0.13652870    -0.22100
C574        C  0.35097733  0.08615219  0.14617350     0.09900
C575        C  0.38111662  0.07494922  0.13518298     0.10300
C576        C  0.36874661  0.06028208  0.11502892    -0.17000
C577        C  0.32396273  0.05051369  0.10586109    -0.27400
C578        C  0.29290609  0.06002791  0.11677980     0.18600
C579        C  0.36701259  0.10910254  0.16690376     0.12600
C580        C  0.42665435  0.07768944  0.14411382    -0.11800
H581        H  0.39241886  0.05258908  0.10672447     0.12900
C582        C  0.24262354  0.04694839  0.10830832    -0.22600
H583        H  0.28551271  0.08937966  0.14467483     0.08500
C584        C  0.41410327  0.15672131  0.17028789     0.04900
C585        C  0.43552484  0.17263862  0.18977885    -0.19800
C586        C  0.40872690  0.14367383  0.20622064    -0.12100
C587        C  0.35745001  0.10153174  0.20310942     0.13600
C588        C  0.33727932  0.08351455  0.18336457    -0.22600
C589        C  0.43999669  0.19136362  0.15312132    -0.05600
H590        H  0.47415438  0.20646435  0.19209727     0.15100
C591        C  0.32533641  0.07483203  0.22065689    -0.15800
H592        H  0.29948178  0.04854406  0.18086600     0.09400
H593        H  0.24481936  0.08330038  0.10659754     0.07300
H594        H  0.21239430  0.02065117  0.11846737     0.08500
H595        H  0.23161554  0.02720734  0.09347453     0.07500
H596        H  0.43351667  0.08932888  0.15999452     0.02400
H597        H  0.46102808  0.10621045  0.13606580     0.02900
H598        H  0.42077236  0.03909120  0.14281207     0.06400
H599        H  0.44810041  0.17308524  0.14120275     0.05400
H600        H  0.47609953  0.22586373  0.15801699    -0.00400
H601        H  0.41587801  0.20357125  0.14696230     0.01100
H602        H  0.28605879  0.04267746  0.21580798     0.04700
H603        H  0.32442353  0.10367618  0.22988911     0.06700
H604        H  0.34182763  0.05909745  0.23052950     0.07500
C605        C  0.13397498  0.26199248  0.33372909    -0.22100
C606        C  0.11411925  0.21886328  0.34607932     0.09900
C607        C  0.07512689  0.16951133  0.33777703     0.10300
C608        C  0.06482263  0.16337811  0.31692981    -0.17000
C609        C  0.08944061  0.20576555  0.30404408    -0.27400
C610        C  0.12215976  0.25640636  0.31297788     0.18600
C611        C  0.13895859  0.22589343  0.36658939     0.12600
C612        C  0.04496933  0.12262444  0.35055172    -0.11800
H613        H  0.03612908  0.12502369  0.31075106     0.12900
C614        C  0.14476688  0.30511423  0.30102719    -0.22600
H615        H  0.16013445  0.30036585  0.34042454     0.08500
C616        C  0.19169797  0.24713544  0.36927012     0.04900
C617        C  0.21381286  0.25384359  0.38849061    -0.19800
C618        C  0.18440544  0.23342645  0.40517455    -0.12100
C619        C  0.13155584  0.21077733  0.40273720     0.13600
C620        C  0.11004413  0.20896192  0.38370616    -0.22600
C621        C  0.22529610  0.25693931  0.35238888    -0.05600
H622        H  0.25423382  0.27138364  0.39024006     0.15100
C623        C  0.09622149  0.18642308  0.41963521    -0.15800
H624        H  0.07000213  0.19295036  0.38241302     0.09400
H625        H  0.17159002  0.34074193  0.31023119     0.07300
H626        H  0.11424752  0.30890283  0.29504942     0.08500
H627        H  0.16537353  0.30370841  0.28843310     0.07500
H628        H  0.02171099  0.12868744  0.36019916     0.02400
H629        H  0.06977180  0.11639314  0.36029578     0.02900
H630        H  0.01913994  0.08660493  0.34143488     0.06400
H631        H  0.26027572  0.29648709  0.35390009     0.05400
H632        H  0.20719046  0.25128412  0.33742463    -0.00400
H633        H  0.23656602  0.22931358  0.35329216     0.01100
H634        H  0.07716174  0.20673684  0.42192572     0.04700
H635        H  0.11575380  0.18806532  0.43392552     0.06700
H636        H  0.06685574  0.14484337  0.41581178     0.07500
C637        C  0.07148676  0.15601015  0.16906120    -0.22100
C638        C  0.12244143  0.19243614  0.16485569     0.09900
C639        C  0.15625032  0.22341644  0.18126836     0.10300
C640        C  0.13736656  0.22204631  0.20011884    -0.17000
C641        C  0.08648804  0.18553519  0.20397035    -0.27400
C642        C  0.05469209  0.14903634  0.18856950     0.18600
C643        C  0.13856048  0.19970632  0.14338354     0.12600
C644        C  0.21266649  0.25639534  0.17981947    -0.11800
H645        H  0.16309383  0.24803950  0.21211198     0.12900
C646        C  0.00404289  0.10078908  0.19272173    -0.22600
H647        H  0.04416809  0.13242589  0.15715858     0.08500
C648        C  0.12293633  0.15779028  0.12962922     0.04900
C649        C  0.14241677  0.16847610  0.11039616    -0.19800
C650        C  0.17875133  0.21932580  0.10458839    -0.12100
C651        C  0.18913767  0.26086367  0.11705773     0.13600
C652        C  0.16959176  0.25060295  0.13620540    -0.22600
C653        C  0.08829761  0.10135624  0.13493537    -0.05600
H654        H  0.13190895  0.13650243  0.10024191     0.15100
C655        C  0.22058993  0.31608843  0.11028494    -0.15800
H656        H  0.18018010  0.28308155  0.14584858     0.09400
H657        H  0.98727779  0.07361766  0.17965156     0.07300
H658        H  0.97780907  0.11108920  0.19706390     0.08500
H659        H  0.00877731  0.07927289  0.20477715     0.07500
H660        H  0.22395898  0.24783280  0.16581756     0.02400
H661        H  0.23082760  0.24786681  0.19224564     0.02900
H662        H  0.22671648  0.29794924  0.18087947     0.06400
H663        H  0.09487621  0.07639470  0.12562106     0.05400
H664        H  0.04812678  0.08785017  0.13202638    -0.00400
H665        H  0.09464420  0.09507274  0.15072007     0.01100
H666        H  0.22488411  0.34317206  0.12212333     0.04700
H667        H  0.20158713  0.32068540  0.09703845     0.06700
H668        H  0.25884041  0.32729245  0.10646276     0.07500
C669        C  0.41155946  0.26704938  0.83087847    -0.22100
C670        C  0.36480717  0.25711820  0.83565011     0.09900
C671        C  0.32798807  0.24334934  0.81976279     0.10300
C672        C  0.34211242  0.24836077  0.79988511    -0.17000
C673        C  0.38933672  0.25889393  0.79535647    -0.27400
C674        C  0.42265441  0.26389437  0.81118691     0.18600
C675        C  0.35811836  0.26453831  0.85711624     0.12600
C676        C  0.27338111  0.22135082  0.82280004    -0.11800
H677        H  0.31561630  0.24274642  0.78783153     0.12900
C678        C  0.47050082  0.26662320  0.80823760    -0.22600
H679        H  0.43899916  0.27546679  0.84285516     0.08500
C680        C  0.32451174  0.22324384  0.86932553     0.04900
C681        C  0.31848768  0.23364762  0.88896916    -0.19800
C682        C  0.34264672  0.28480407  0.89630396    -0.12100
C683        C  0.38140154  0.32555316  0.88529295     0.13600
C684        C  0.39013455  0.31430389  0.86620856    -0.22600
C685        C  0.29402901  0.16780868  0.86228142    -0.05600
H686        H  0.29116707  0.20177209  0.89798481     0.15100
C687        C  0.41375100  0.38085980  0.89328725    -0.15800
H688        H  0.42105778  0.34518909  0.85809393     0.09400
H689        H  0.46768797  0.23301409  0.81527512     0.07300
H690        H  0.50271730  0.30269453  0.81546284     0.08500
H691        H  0.47874043  0.26523280  0.79264236     0.07500
H692        H  0.26508406  0.21465034  0.83860516     0.02400
H693        H  0.24935821  0.18293725  0.81491506     0.02900
H694        H  0.26301948  0.24738086  0.81661139     0.06400
H695        H  0.25350825  0.15133946  0.86446144     0.05400
H696        H  0.30650456  0.14683456  0.87129085    -0.00400
H697        H  0.29784212  0.16226882  0.84634041     0.01100
H698        H  0.45409267  0.39410802  0.89450132     0.04700
H699        H  0.40321819  0.38523653  0.90832460     0.06700
H700        H  0.41001287  0.40668990  0.88304513     0.07500
C701        C  0.11090781  0.38197690  0.81953258    -0.22100
C702        C  0.09426397  0.40345855  0.83310867     0.09900
C703        C  0.06372241  0.42005462  0.82493095     0.10300
C704        C  0.04735483  0.41030311  0.80475174    -0.17000
C705        C  0.06063217  0.38499416  0.79180583    -0.27400
C706        C  0.09468058  0.37264071  0.79918872     0.18600
C707        C  0.11105793  0.40878263  0.85512495     0.12600
C708        C  0.04772288  0.44907907  0.83652493    -0.11800
H709        H  0.02187847  0.42087790  0.79933252     0.12900
C710        C  0.11349948  0.34865807  0.78595571    -0.22600
H711        H  0.13478411  0.36953927  0.82498940     0.08500
C712        C  0.07844203  0.39544948  0.87137226     0.04900
C713        C  0.09892285  0.40675900  0.89119178    -0.19800
C714        C  0.14976082  0.42524727  0.89566252    -0.12100
C715        C  0.17923091  0.42820296  0.87991807     0.13600
C716        C  0.16090249  0.42305406  0.86003113    -0.22600
C717        C  0.02189974  0.36837491  0.86878090    -0.05600
H718        H  0.07523752  0.40226030  0.90325169     0.15100
C719        C  0.21991934  0.91894872  0.88342671    -0.15800
H720        H  0.18646426  0.43080062  0.84830070     0.09400
H721        H  0.08256108  0.30776947  0.78194244     0.07300
H722        H  0.14455031  0.34838794  0.79378453     0.08500
H723        H  0.12861789  0.37165906  0.77226779     0.07500
H724        H  0.06649438  0.45975116  0.85138756     0.02400
H725        H  0.00591629  0.42501699  0.83777365     0.02900
H726        H  0.05831923  0.48521815  0.82880824     0.06400
H727        H  0.00231762  0.33236160  0.87752657     0.05400
H728        H  0.00816011  0.35696412  0.85311446    -0.00400
H729        H  0.01108552  0.39427060  0.87428124     0.01100
H730        H  0.23132307  0.92396176  0.89954519     0.04700
H731        H  0.25168942  0.95030696  0.87507325     0.06700
H732        H  0.21232087  0.88122294  0.87817561     0.07500
C733        C  0.06854753  0.41759891  0.66619138    -0.22100
C734        C  0.10264319  0.40304898  0.66335835     0.09900
C735        C  0.11622179  0.38471546  0.68023422     0.10300
C736        C  0.08923769  0.37311546  0.69757806    -0.17000
C737        C  0.05091188  0.38147941  0.69931996    -0.27400
C738        C  0.04202422  0.40650000  0.68376735     0.18600
C739        C  0.12209167  0.40704703  0.64281312     0.12600
C740        C  0.15981333  0.37865392  0.68124133    -0.11800
H741        H  0.09860442  0.35775191  0.71020992     0.12900
C742        C  0.00372937  0.42007806  0.68517488    -0.22600
H743        H  0.06177441  0.43696770  0.65433723     0.08500
C744        C  0.09030195  0.39344598  0.62504895     0.04900
C745        C  0.11172173  0.40503667  0.60636583    -0.19800
C746        C  0.16305024  0.42618506  0.60471589    -0.12100
C747        C  0.19258985  0.43115181  0.62158394     0.13600
C748        C  0.17347944  0.42600513  0.64045928    -0.22600
C749        C  0.03385945  0.36733471  0.62461295    -0.05600
H750        H  0.08868249  0.39964745  0.59303096     0.15100
C751        C  0.23983402  0.93956216  0.61726917    -0.15800
H752        H  0.20022244  0.43980147  0.65301830     0.09400
H753        H  0.00097093  0.43831811  0.67137679     0.07300
H754        H  0.01507819  0.44820881  0.69777835     0.08500
H755        H  0.96560356  0.38436071  0.68747210     0.07500
H756        H  0.19604671  0.41717761  0.68405017     0.02400
H757        H  0.16142733  0.35971021  0.66770498     0.02900
H758        H  0.15626687  0.35420276  0.69383614     0.06400
H759        H  0.01579761  0.33368453  0.61391071     0.05400
H760        H  0.02449949  0.39508652  0.61947373    -0.00400
H761        H  0.01687960  0.35148440  0.63907816     0.01100
H762        H  0.26540256  0.97881567  0.61117819     0.04700
H763        H  0.23688714  0.91038465  0.60677191     0.06700
H764        H  0.25582664  0.93656370  0.63159871     0.07500
C765        C  0.33037337  0.19942833  0.66753201    -0.22100
C766        C  0.33252466  0.23942568  0.65701701     0.09900
C767        C  0.34637951  0.28423741  0.66814561     0.10300
C768        C  0.35984858  0.28941789  0.68844342    -0.17000
C769        C  0.36254790  0.25179069  0.69851667    -0.27400
C770        C  0.34603795  0.20499091  0.68796384     0.18600
C771        C  0.32108558  0.23435484  0.63470279     0.12600
C772        C  0.34888773  0.32900315  0.65951428    -0.11800
H773        H  0.37163778  0.32555279  0.69608836     0.12900
C774        C  0.34587547  0.16155351  0.69783727    -0.22600
H775        H  0.32059010  0.16571840  0.65916553     0.08500
C776        C  0.35509829  0.27232345  0.62136004     0.04900
C777        C  0.33844360  0.27281578  0.60173750    -0.19800
C778        C  0.28908596  0.23479979  0.59450424    -0.12100
C779        C  0.25739701  0.19245333  0.60674385     0.13600
C780        C  0.27412684  0.19241328  0.62662646    -0.22600
C781        C  0.40954527  0.31268994  0.62713492    -0.05600
H782        H  0.36384672  0.30424283  0.59213276     0.15100
C783        C  0.20526494  0.14903875  0.59911897    -0.15800
H784        H  0.25022346  0.16045753  0.63611721     0.09400
H785        H  0.38519511  0.17483148  0.70225837     0.07300
H786        H  0.33030372  0.12732059  0.68765009     0.08500
H787        H  0.32255854  0.14912936  0.71116492     0.07500
H788        H  0.33472241  0.32283074  0.64385336     0.02400
H789        H  0.38893808  0.36297861  0.66094549     0.02900
H790        H  0.32512858  0.33580865  0.66865194     0.06400
H791        H  0.41748320  0.35220851  0.62595335     0.05400
H792        H  0.43238745  0.30838965  0.61642758    -0.00400
H793        H  0.42090293  0.30789166  0.64236990     0.01100
H794        H  0.18416269  0.12091283  0.61087580     0.04700
H795        H  0.20821598  0.12805290  0.58648554     0.06700
H796        H  0.18318400  0.16485206  0.59397299     0.07500
C797        C  0.00613728  0.16746554  0.81692700    -0.22100
C798        C  0.04384205  0.18792578  0.83252658     0.09900
C799        C  0.09337687  0.20609594  0.82776097     0.10300
C800        C  0.10349639  0.19703402  0.80865510    -0.17000
C801        C  0.06504320  0.17177681  0.79361794    -0.27400
C802        C  0.01692554  0.16138121  0.79729813     0.18600
C803        C  0.03319334  0.19302890  0.85365945     0.12600
C804        C  0.13577974  0.23545279  0.84297449    -0.11800
H805        H  0.14154189  0.20835175  0.80567242     0.12900
C806        C  0.97913255  0.14876966  0.78032660    -0.22600
H807        H  0.96845525  0.15617685  0.81988141     0.08500
C808        C  0.03286276  0.23573169  0.86033905     0.04900
C809        C  0.02576995  0.24088380  0.88051993    -0.19800
C810        C  0.02103780  0.20522285  0.89453547    -0.12100
C811        C  0.02818167  0.16640747  0.88843867     0.13600
C812        C  0.03457014  0.16118096  0.86819711    -0.22600
C813        C  0.04525519  0.27928896  0.84703874    -0.05600
H814        H  0.02281427  0.27226774  0.88529891     0.15100
C815        C  0.03025702  0.13062020  0.90292591    -0.15800
H816        H  0.04272911  0.13320382  0.86390895     0.09400
H817        H  0.94352786  0.14231805  0.78564354     0.07300
H818        H  0.96978259  0.11381677  0.77191004     0.08500
H819        H  0.99585905  0.18177668  0.76996680     0.07500
H820        H  0.12913995  0.21126457  0.85603030     0.02400
H821        H  0.13999380  0.27200456  0.84760497     0.02900
H822        H  0.17035276  0.24470094  0.83635456     0.06400
H823        H  0.08190863  0.31364463  0.85277468     0.05400
H824        H  0.01520870  0.28652491  0.84756416    -0.00400
H825        H  0.04994086  0.27244409  0.83135617     0.01100
H826        H  0.99939835  0.08966086  0.89891896     0.04700
H827        H  0.02661109  0.13904978  0.91856618     0.06700
H828        H  0.06729806  0.13524742  0.90211549     0.07500
C829        C  0.21529691  0.05059831  0.86265909    -0.22100
C830        C  0.17080673  0.04904189  0.85866538     0.09900
C831        C  0.13863023  0.03964319  0.87468311     0.10300
C832        C  0.15196641  0.03143921  0.89369568    -0.17000
C833        C  0.19572488  0.03211384  0.89714582    -0.27400
C834        C  0.22929551  0.04503707  0.88196920     0.18600
C835        C  0.16104435  0.05838840  0.83774358     0.12600
C836        C  0.08892489  0.03525449  0.87275245    -0.11800
H837        H  0.11756104  0.51583191  0.90721035     0.12900
C838        C  0.28022094  0.05396850  0.88647679    -0.22600
H839        H  0.24073777  0.05908499  0.85078503     0.08500
C840        C  0.14967727  0.09512590  0.83289438     0.04900
C841        C  0.13746268  0.09906673  0.81317970    -0.19800
C842        C  0.14033759  0.07092243  0.79782735    -0.12100
C843        C  0.15552917  0.03732118  0.80199372     0.13600
C844        C  0.16545764  0.03104870  0.82201688    -0.22600
C845        C  0.15206871  0.13272387  0.84763166    -0.05600
H846        H  0.12697377  0.12581573  0.80962399     0.15100
C847        C  0.16145650  0.00888056  0.78541698    -0.15800
H848        H  0.17579625  0.00401801  0.82542475     0.09400
H849        H  0.30339420  0.08878306  0.89649054     0.07300
H850        H  0.30035337  0.06033642  0.87265648     0.08500
H851        H  0.27669599  0.02080309  0.89422444     0.07500
H852        H  0.07731310  0.03735413  0.85725843     0.02400
H853        H  0.09172935  0.06668437  0.88182871     0.02900
H854        H  0.05097351  0.49431792  0.87903903     0.06400
H855        H  0.17764528  0.17245470  0.84224917     0.05400
H856        H  0.16685652  0.13113109  0.86252343    -0.00400
H857        H  0.11384411  0.12513657  0.84878742     0.01100
H858        H  0.17195023  0.98257890  0.79128383     0.04700
H859        H  0.19158710  0.03738930  0.77561885     0.06700
H860        H  0.12525722  0.98514168  0.77636350     0.07500
C861        C  0.13331911  0.02278455  0.62659867    -0.22100
C862        C  0.16887603  0.04003701  0.64283650     0.09900
C863        C  0.21773770  0.05213555  0.63930512     0.10300
C864        C  0.23019816  0.04746489  0.61988143    -0.17000
C865        C  0.19390304  0.02772440  0.60388181    -0.27400
C866        C  0.14531519  0.01700712  0.60723590     0.18600
C867        C  0.15530841  0.04708654  0.66322125     0.12600
C868        C  0.25572823  0.06627250  0.65625245    -0.11800
H869        H  0.26716321  0.05507294  0.61751421     0.12900
C870        C  0.10521714  0.99922423  0.59065155    -0.22600
H871        H  0.09541460  0.01254702  0.62905396     0.08500
C872        C  0.14203291  0.08270972  0.66682694     0.04900
C873        C  0.13294933  0.09052022  0.68627193    -0.19800
C874        C  0.13584771  0.06351079  0.70233404    -0.12100
C875        C  0.14929858  0.02829560  0.69914723     0.13600
C876        C  0.15939268  0.02085564  0.67966164    -0.22600
C877        C  0.13985321  0.11508039  0.65067451    -0.05600
H878        H  0.12438434  0.11896664  0.68910059     0.15100
C879        C  0.15416672  0.99992697  0.71630381    -0.15800
H880        H  0.17061479  0.99442683  0.67730833     0.09400
H881        H  0.09534945  0.02810616  0.58908079     0.07300
H882        H  0.07750419  0.47255648  0.59346688     0.08500
H883        H  0.11797649  0.99518027  0.57606783     0.07500
H884        H  0.24735227  0.03065573  0.66369396     0.02400
H885        H  0.25405617  0.09131485  0.66743842     0.02900
H886        H  0.29464616  0.08729191  0.65086842     0.06400
H887        H  0.13135590  0.14239871  0.65669458     0.05400
H888        H  0.11029450  0.09025358  0.63897322    -0.00400
H889        H  0.17682588  0.13916682  0.64396904     0.01100
H890        H  0.11721697  0.97575602  0.72346456     0.04700
H891        H  0.18328348  0.02841526  0.72751985     0.06700
H892        H  0.16573812  0.97418165  0.71132407     0.07500
C893        C  0.08717549  0.18513150  0.62380834    -0.22100
C894        C  0.07467466  0.20676551  0.63897435     0.09900
C895        C  0.06217148  0.24249624  0.63331979     0.10300
C896        C  0.05582277  0.24951980  0.61309308    -0.17000
C897        C  0.05696194  0.21855479  0.59849472    -0.27400
C898        C  0.07652752  0.18896456  0.60359312     0.18600
C899        C  0.07141161  0.18912228  0.66008964     0.12600
C900        C  0.05155561  0.27098115  0.64803091    -0.11800
H901        H  0.04301124  0.27404818  0.60873674     0.12900
C902        C  0.08312906  0.15908938  0.58785846    -0.22600
H903        H  0.10062373  0.16108564  0.62775261     0.08500
C904        C  0.04306042  0.13559153  0.66527796     0.04900
C905        C  0.04083342  0.12229637  0.68534634    -0.19800
C906        C  0.06451822  0.16034460  0.70054544    -0.12100
C907        C  0.08889201  0.21283179  0.69576813     0.13600
C908        C  0.09536209  0.22674285  0.67571031    -0.22600
C909        C  0.01469584  0.09033449  0.65068766    -0.05600
H910        H  0.02222239  0.08166866  0.68906351     0.15100
C911        C  0.10566307  0.25399719  0.71179659    -0.15800
H912        H  0.11874140  0.26737917  0.67238178     0.09400
H913        H  0.09653107  0.13591109  0.59450048     0.07300
H914        H  0.11140024  0.18665588  0.57727108     0.08500
H915        H  0.04647535  0.13179684  0.57953223     0.07500
H916        H  0.08698819  0.30202531  0.65547127     0.02400
H917        H  0.02501721  0.24486508  0.65908055     0.02900
H918        H  0.53126152  0.28731655  0.63922531     0.06400
H919        H  0.97536562  0.06422006  0.65554054     0.05400
H920        H  0.03196676  0.06780169  0.65104361    -0.00400
H921        H  0.01291287  0.10115290  0.63521338     0.01100
H922        H  0.14736944  0.27857019  0.71378765     0.04700
H923        H  0.09010397  0.23708082  0.72642943     0.06700
H924        H  0.09100770  0.27789599  0.70773399     0.07500
C925        C  0.39185763  0.06166984  0.87978212    -0.22100
C926        C  0.39220972  0.08594094  0.86205170     0.09900
C927        C  0.40021740  0.13543495  0.86338428     0.10300
C928        C  0.40961868  0.15994798  0.88202420    -0.17000
C929        C  0.41421757  0.13746094  0.89926256    -0.27400
C930        C  0.40174381  0.08640156  0.89840325     0.18600
C931        C  0.38053168  0.05875338  0.84235066     0.12600
C932        C  0.40299187  0.16555049  0.84547881    -0.11800
H933        H  0.41899242  0.19930377  0.88287528     0.12900
C934        C  0.40019757  0.05861308  0.91708465    -0.22600
H935        H  0.38605141  0.02440236  0.87940404     0.08500
C936        C  0.41420279  0.04978765  0.83320868     0.04900
C937        C  0.40769454  0.03812356  0.81272043    -0.19800
C938        C  0.36737751  0.03306553  0.80108977    -0.12100
C939        C  0.32998296  0.03541150  0.81089635     0.13600
C940        C  0.33727510  0.04821115  0.83132830    -0.22600
C941        C  0.45709541  0.05152168  0.84427672    -0.05600
H942        H  0.43466298  0.03273491  0.80584877     0.15100
C943        C  0.28241334  0.02514082  0.80030650    -0.15800
H944        H  0.31048835  0.05319168  0.83854955     0.09400
H945        H  0.39090164  0.01913701  0.91365788     0.07300
H946        H  0.37056719  0.05433593  0.92667096     0.08500
H947        H  0.43732105  0.08089662  0.92555991     0.07500
H948        H  0.37279349  0.17240111  0.84580802     0.02400
H949        H  0.39905810  0.14672890  0.83096810     0.02900
H950        H  0.90069942  0.19856311  0.85278797     0.06400
H951        H  0.49351588  0.08036665  0.83756055     0.05400
H952        H  0.45157344  0.01321486  0.84288387    -0.00400
H953        H  0.45967237  0.06041053  0.86034723     0.01100
H954        H  0.25857910  0.98431746  0.79449653     0.04700
H955        H  0.29237704  0.05258876  0.78794401     0.06700
H956        H  0.25893740  0.03038228  0.81048102     0.07500
C957        C  0.25304898  0.28886252  0.85823080    -0.22100
C958        C  0.28124461  0.33833049  0.85005654     0.09900
C959        C  0.30429177  0.38151012  0.86340965     0.10300
C960        C  0.30505103  0.37441320  0.88424232    -0.17000
C961        C  0.27905326  0.32419226  0.89202863    -0.27400
C962        C  0.24855868  0.28136747  0.87885079     0.18600
C963        C  0.28813594  0.34441658  0.82782956     0.12600
C964        C  0.33049711  0.43534595  0.85580926    -0.11800
H965        H  0.32769457  0.40794326  0.89424685     0.12900
C966        C  0.21331312  0.22706630  0.88639848    -0.22600
H967        H  0.23552966  0.25560929  0.84860062     0.08500
C968        C  0.33629440  0.36673681  0.81955028     0.04900
C969        C  0.34184872  0.37636587  0.79910425    -0.19800
C970        C  0.30135154  0.36678793  0.78635394    -0.12100
C971        C  0.25220680  0.33934032  0.79397243     0.13600
C972        C  0.24658689  0.33046055  0.81464789    -0.22600
C973        C  0.38410725  0.38503720  0.83177683    -0.05600
H974        H  0.37974546  0.39636188  0.79356082     0.15100
C975        C  0.20552261  0.31807177  0.78036923    -0.15800
H976        H  0.21005147  0.31561558  0.82052768     0.09400
H977        H  0.22374153  0.20136226  0.88056139     0.07300
H978        H  0.17371163  0.21143728  0.88145215     0.08500
H979        H  0.21393154  0.22532301  0.90289691     0.07500
H980        H  0.32626759  0.43700689  0.83941815     0.02400
H981        H  0.37136474  0.45586273  0.86002870     0.02900
H982        H  0.31379784  0.45466798  0.86232319     0.06400
H983        H  0.41227523  0.42705240  0.82943021     0.05400
H984        H  0.40036010  0.36352284  0.82685162    -0.00400
H985        H  0.37779830  0.38013695  0.84783965     0.01100
H986        H  0.17033809  0.29271660  0.78847889     0.04700
H987        H  0.20569772  0.29404534  0.76819569     0.06700
H988        H  0.20382544  0.34978796  0.77385372     0.07500
C989        C  0.42471989  0.08484410  0.63056172    -0.22100
C990        C  0.41914930  0.11834681  0.64235721     0.09900
C991        C  0.42312545  0.16145479  0.63317212     0.10300
C992        C  0.43514764  0.17107643  0.61302930    -0.17000
C993        C  0.44483932  0.13961126  0.60199785    -0.27400
C994        C  0.43728947  0.09471270  0.61058423     0.18600
C995        C  0.40644052  0.10493762  0.66369854     0.12600
C996        C  0.41357144  0.19722702  0.64376822    -0.11800
H997        H  0.43960867  0.20495058  0.60618642     0.12900
C998        C  0.44268863  0.05738216  0.59864085    -0.22600
H999        H  0.42052055  0.05128218  0.63718596     0.08500
C1000       C  0.36148016  0.05762552  0.66857292     0.04900
C1001       C  0.35106813  0.04502461  0.68855114    -0.19800
C1002       C  0.38585569  0.07651330  0.70407779    -0.12100
C1003       C  0.43060579  0.12418955  0.69954043     0.13600
C1004       C  0.44022744  0.13818587  0.67936496    -0.22600
C1005       C  0.32526763  0.01826264  0.65289930    -0.05600
H1006       H  0.31704646  0.00781372  0.69198604     0.15100
C1007       C  0.46637405  0.16106415  0.71597201    -0.15800
H1008       H  0.47475343  0.17438052  0.67584454     0.09400
H1009       H  0.43473495  0.02361250  0.60744883     0.07300
H1010       H  0.96988978  0.06255443  0.60165103     0.08500
H1011       H  0.94983520  0.08072196  0.57967361     0.07500
H1012       H  0.44682679  0.23795482  0.64332414     0.02400
H1013       H  0.40508499  0.18733886  0.65955839     0.02900
H1014       H  0.38120269  0.19487999  0.63582460     0.06400
H1015       H  0.28908501  0.98769675  0.65939407     0.05400
H1016       H  0.34177113  0.99886549  0.64632159    -0.00400
H1017       H  0.31709296  0.03673523  0.64067407     0.01100
H1018       H  0.48341556  0.14359985  0.72457013     0.04700
H1019       H  0.44542788  0.16968806  0.72624098     0.06700
H1020       H  0.49716942  0.19844081  0.70989806     0.07500
C1021       C  0.26531415  0.37693933  0.66299416    -0.22100
C1022       C  0.30428587  0.39438906  0.64976522     0.09900
C1023       C  0.35561049  0.42859942  0.65765084     0.10300
C1024       C  0.36457642  0.44054955  0.67838233    -0.17000
C1025       C  0.32470400  0.41558108  0.69151033    -0.27400
C1026       C  0.27519007  0.38032196  0.68356246     0.18600
C1027       C  0.28980965  0.36825292  0.62931932     0.12600
C1028       C  0.40144830  0.44929776  0.64519670    -0.11800
H1029       H  0.40290184  0.46833010  0.68438672     0.12900
C1030       C  0.23436092  0.34049244  0.69645817    -0.22600
H1031       H  0.22643710  0.35483863  0.65729298     0.08500
C1032       C  0.25111902  0.31377081  0.62610227     0.04900
C1033       C  0.24178419  0.29177124  0.60698220    -0.19800
C1034       C  0.27364598  0.31917901  0.59154932    -0.12100
C1035       C  0.31124538  0.37276457  0.59428011     0.13600
C1036       C  0.31642020  0.39707491  0.61269497    -0.22600
C1037       C  0.22104278  0.27568190  0.64226758    -0.05600
H1038       H  0.21147704  0.25114296  0.60439044     0.15100
C1039       C  0.34762755  0.40374653  0.57826315    -0.15800
H1040       H  0.34192451  0.43874332  0.61403951     0.09400
H1041       H  0.20034804  0.31110998  0.68724515     0.07300
H1042       H  0.22327415  0.35862020  0.70730376     0.08500
H1043       H  0.24822819  0.31950659  0.70473241     0.07500
H1044       H  0.40566915  0.47904675  0.63500899     0.02400
H1045       H  0.39843250  0.41778292  0.63619211     0.02900
H1046       H  0.43711175  0.46767995  0.65464911     0.06400
H1047       H  0.20666284  0.23516654  0.63761697     0.05400
H1048       H  0.18718006  0.27577642  0.64524274    -0.00400
H1049       H  0.24434948  0.28352364  0.65614375     0.01100
H1050       H  0.32711135  0.40638090  0.56509414     0.04700
H1051       H  0.36692635  0.38493906  0.57376277     0.06700
H1052       H  0.37746631  0.44390307  0.58354328     0.07500
O1053       O  0.32893565  0.77826278  0.98370998    -0.80500
O1054       O  0.31404175  0.60599804  0.03827797    -0.65200
O1055       O  0.35349023  0.71603829  0.00150491    -1.11800
C1056       C  0.27613214  0.55737455  0.96434784     1.06400
O1057       O  0.31484178  0.54746279  0.01745210    -0.78400
O1058       O  0.40782541  0.63738951  0.97738844    -0.66000
Ni1059     Ni  0.37312500  0.78261759  0.00611934     1.34900
C1060       C  0.42049991  0.67982228  0.96888848     0.85100
O1061       O  0.40657913  0.70662005  0.03035025    -0.78900
O1062       O  0.42179504  0.78745413  0.02765961    -0.89200
C1063       C  0.30569608  0.56000430  0.03417132     0.84700
O1064       O  0.31961703  0.76591761  0.02408653    -0.67400
O1065       O  0.30189791  0.54704437  0.97651921    -0.86700
C1066       C  0.30536270  0.73672079  0.03911858     0.85500
C1067       C  0.43565941  0.75682978  0.03373103     1.07100
H1068       H  0.29372405  0.60031292  0.00019456     0.38900
O1069       O  0.32921077  0.62811846  0.99965826    -1.09400
O1070       O  0.39127414  0.69597796  0.96920301    -0.66000
Ni1071     Ni  0.32394615  0.66706028  0.98043157     1.26300
O1072       O  0.32004625  0.70517201  0.04186367    -0.66200
O1073       O  0.28801852  0.60510758  0.96234229    -0.78500
C1074       C  0.31395722  0.75267945  0.96685862     0.84900
O1075       O  0.31429044  0.71171181  0.96332866    -0.65700
Ni1076     Ni  0.35815265  0.59156382  0.99677189     1.27400
Ni1077     Ni  0.33334495  0.66713596  0.02170639     1.26100
H1078       H  0.38771518  0.72670022  0.99939435     0.39500
O1079       O  0.28428299  0.54127436  0.48260119    -0.80500
O1080       O  0.28108220  0.68049640  0.52119685    -0.65200
O1081       O  0.31597843  0.62487260  0.50312720    -1.11800
C1082       C  0.43676240  0.77529867  0.46840571     1.06400
O1083       O  0.32927129  0.76805961  0.51935295    -0.78400
O1084       O  0.32948531  0.76565642  0.48002133    -0.66000
Ni1085     Ni  0.33630455  0.57715668  0.50299075     1.34900
C1086       C  0.29293554  0.72108677  0.47347036     0.85100
O1087       O  0.29453671  0.60691662  0.54157669    -0.78900
O1088       O  0.29046664  0.54088822  0.52439742    -0.89200
C1089       C  0.28837802  0.72572905  0.52419024     0.84700
O1090       O  0.39646057  0.60993016  0.52113185    -0.67400
O1091       O  0.43463893  0.80221691  0.48239871    -0.86700
C1092       C  0.41975492  0.65181621  0.53142648     0.85500
C1093       C  0.27734546  0.55736504  0.53889551     1.07100
H1094       H  0.41055096  0.73249364  0.50779298     0.38900
O1095       O  0.37566135  0.72089487  0.50517499    -1.09400
O1096       O  0.29542047  0.68090894  0.47560475    -0.66000
Ni1097     Ni  0.35198364  0.67240002  0.48335395     1.26300
O1098       O  0.39919786  0.67633068  0.53360683    -0.66200
O1099       O  0.40050486  0.72629487  0.46507296    -0.78500
C1100       C  0.29467242  0.56116099  0.46538780     0.84900
O1101       O  0.32302371  0.61232878  0.46342826    -0.65700
Ni1102     Ni  0.38105200  0.78392827  0.50096713     1.27400
Ni1103     Ni  0.33694076  0.67072557  0.52541235     1.26100
H1104       H  0.27980552  0.60729538  0.50046246     0.39500
O1105       O  0.32456970  0.50832212  0.76961389    -0.74000
O1106       O  0.29600128  0.92840971  0.72093526    -0.74100
O1107       O  0.28675633  0.90589934  0.76049143    -0.74100
O1108       O  0.33857820  0.53239691  0.72988318    -0.74200
O1109       O  0.41579567  0.54775105  0.73298661    -0.74100
O1110       O  0.36451122  0.92303153  0.76164884    -0.74100
O1111       O  0.37464865  0.94771921  0.72157295    -0.74100
O1112       O  0.39928382  0.51871477  0.77292704    -0.74100
Ni1113     Ni  0.30640274  0.96527968  0.74501940     1.25400
Ni1114     Ni  0.39028374  0.98490543  0.74666472     1.25400
C1115       C  0.36394472  0.52076902  0.78035982     0.88100
C1116       C  0.33124375  0.92849282  0.71252422     0.88100
C1117       C  0.31940776  0.89818476  0.76798336     0.88100
C1118       C  0.38437095  0.55603249  0.72442963     0.88300
O1119       O  0.08960438  0.55606768  0.73074349    -0.74000
O1120       O  0.04814876  0.61297431  0.77020279    -0.74100
O1121       O  0.04470227  0.60664026  0.72941534    -0.74100
O1122       O  0.09223408  0.56057810  0.77171952    -0.74200
O1123       O  0.16820764  0.63638176  0.77213539    -0.74100
O1124       O  0.12069230  0.68226836  0.72967031    -0.74100
O1125       O  0.12418678  0.68820874  0.77032990    -0.74100
O1126       O  0.16548134  0.63181055  0.73100868    -0.74100
Ni1127     Ni  0.06599907  0.58130529  0.75058828     1.25400
Ni1128     Ni  0.14743291  0.66225238  0.75081876     1.25400
C1129       C  0.13300049  0.58655271  0.72328031     0.88100
C1130       C  0.07986374  0.65948094  0.77717601     0.88100
C1131       C  0.07596181  0.65067396  0.72182139     0.88100
C1132       C  0.13665935  0.59223293  0.77967585     0.88300
O1133       O  0.00757334  0.88355402  0.76371663    -0.74000
O1134       O  0.39892419  0.80333762  0.72508462    -0.74100
O1135       O  0.40807892  0.80601132  0.76587343    -0.74100
O1136       O  0.99820618  0.88220236  0.72277434    -0.74200
O1137       O  0.01038769  0.81842753  0.72175761    -0.74100
O1138       O  0.41920024  0.74149122  0.76427809    -0.74100
O1139       O  0.41202116  0.74051769  0.72322145    -0.74100
O1140       O  0.01924056  0.81962790  0.76237974    -0.74100
Ni1141     Ni  0.45275110  0.84227905  0.74481467     1.25400
Ni1142     Ni  0.46602501  0.77424403  0.74338871     1.25400
C1143       C  0.02882378  0.86145713  0.77071496     0.88100
C1144       C  0.38987121  0.76181529  0.71658559     0.88100
C1145       C  0.40270256  0.76524509  0.77314953     0.88100
C1146       C  0.01834249  0.86088216  0.71496377     0.88300
C1147       C  0.01389572  0.71087553  0.54402720     0.02700
C1148       C  0.46223829  0.66411479  0.54653080     0.02600
C1149       C  0.44224178  0.64984401  0.56565766    -0.17900
C1150       C  0.47282875  0.66211451  0.58295337     0.02700
C1151       C  0.02058543  0.70461318  0.58062703     0.02600
C1152       C  0.04270388  0.72543497  0.56243408    -0.17900
H1153       H  0.08377381  0.75200169  0.56262642     0.04700
H1154       H  0.40161270  0.62955822  0.56734507     0.04700
C1155       C  0.21520745  0.95759666  0.55247822     0.02700
C1156       C  0.24187360  0.51743334  0.55402850     0.02600
C1157       C  0.23549833  0.53977576  0.57126168    -0.17900
C1158       C  0.20773862  0.50999043  0.58736253     0.02700
C1159       C  0.18271846  0.95180377  0.58539708     0.02600
C1160       C  0.19039278  0.92936429  0.56943272    -0.17900
H1161       H  0.17365828  0.88793133  0.57009698     0.04700
H1162       H  0.25215149  0.58117005  0.57236597     0.04700
C1163       C  0.27243677  0.79705859  0.94786859     0.02700
C1164       C  0.30226471  0.77475176  0.94908485     0.02600
C1165       C  0.32440755  0.77236881  0.93157482    -0.17900
C1166       C  0.31905409  0.79046709  0.91330636     0.02700
C1167       C  0.29024109  0.81194644  0.91196187     0.02600
C1168       C  0.26736771  0.81482334  0.92895655    -0.17900
H1169       H  0.24520225  0.83128223  0.92728133     0.04700
H1170       H  0.34688987  0.75610082  0.93201976     0.04700
C1171       C  0.25702584  0.73259853  0.53849767     0.02700
C1172       C  0.24800669  0.77369928  0.53694427     0.02600
C1173       C  0.25826627  0.80486285  0.55400386    -0.17900
C1174       C  0.27099986  0.79395747  0.57259723     0.02700
C1175       C  0.27357874  0.75023594  0.57465227     0.02600
C1176       C  0.26476732  0.71928356  0.55778890    -0.17900
H1177       H  0.27180202  0.68910196  0.55945529     0.04700
H1178       H  0.24982572  0.83412593  0.55347839     0.04700
C1179       C  0.19991285  0.95533285  0.94951819     0.02700
C1180       C  0.23263166  0.51449375  0.95027115     0.02600
C1181       C  0.22369635  0.53630537  0.93348446    -0.17900
C1182       C  0.19440113  0.50699461  0.91676952     0.02700
C1183       C  0.17334952  0.95174680  0.91400471     0.02600
C1184       C  0.17368684  0.92729286  0.93138198    -0.17900
H1185       H  0.15091158  0.88503199  0.93089617     0.04700
H1186       H  0.24165093  0.57787513  0.93251702     0.04700
C1187       C  0.01137294  0.73292110  0.94910554     0.02700
C1188       C  0.45701004  0.69733661  0.95199468     0.02600
C1189       C  0.42726713  0.66507282  0.93545389    -0.17900
C1190       C  0.44806779  0.66430312  0.91798313     0.02700
C1191       C  0.99678080  0.69779851  0.91471416     0.02600
C1192       C  0.02888370  0.73131121  0.93020274    -0.17900
H1193       H  0.06870653  0.75717182  0.92704848     0.04700
H1194       H  0.38625380  0.63809284  0.93613299     0.04700
O1195       O  0.16266821  0.71597235  0.48182962    -0.80500
O1196       O  0.17827917  0.87109059  0.53663160    -0.65200
O1197       O  0.11914111  0.76517584  0.49428081    -1.11800
C1198       C  0.20937762  0.92654671  0.46034226     1.06400
O1199       O  0.20671223  0.94124649  0.51711985    -0.78400
O1200       O  0.09153881  0.87465543  0.47989903    -0.66000
Ni1201     Ni  0.11165797  0.70465271  0.50070851     1.34900
C1202       C  0.06774709  0.83382805  0.46897784     0.85100
O1203       O  0.07698206  0.78002163  0.52297752    -0.78900
O1204       O  0.06159215  0.69838128  0.52021943    -0.89200
C1205       C  0.20182490  0.92182931  0.53433316     0.84700
O1206       O  0.16493099  0.72741396  0.52129584    -0.67400
O1207       O  0.19717053  0.94276539  0.47536083    -0.86700
C1208       C  0.20751070  0.77125280  0.52337605     0.85500
C1209       C  0.04937189  0.72987702  0.52666668     1.07100
H1210       H  0.20601505  0.87721217  0.49665497     0.38900
O1211       O  0.16931980  0.85721656  0.49588197    -1.09400
O1212       O  0.08706813  0.80779026  0.46626878    -0.66000
Ni1213     Ni  0.15101923  0.81320315  0.47341116     1.26300
O1214       O  0.21086714  0.81289394  0.51773006    -0.66200
O1215       O  0.19132162  0.87697545  0.45722714    -0.78500
C1216       C  0.20173139  0.75788780  0.47493047     0.84900
O1217       O  0.20777035  0.80327386  0.47665137    -0.65700
Ni1218     Ni  0.15206055  0.90640233  0.49744237     1.27400
Ni1219     Ni  0.14800261  0.81031823  0.51723263     1.26100
H1220       H  0.08439504  0.75384525  0.49159354     0.39500
O1221       O  0.05357559  0.81285764  0.01678023    -0.80500
O1222       O  0.20731175  0.80592749  0.96110916    -0.65200
O1223       O  0.12757464  0.82119026  0.99788577    -1.11800
C1224       C  0.25484697  0.92681565  0.03182596     1.06400
O1225       O  0.27346936  0.82142083  0.98201207    -0.78400
O1226       O  0.26335053  0.80974694  0.02256509    -0.66000
Ni1227     Ni  0.09673519  0.85642654  0.99549431     1.34900
C1228       C  0.23560465  0.79476846  0.03758637     0.85100
O1229       O  0.10118318  0.78151765  0.96062460    -0.78900
O1230       O  0.04983838  0.80106048  0.97549630    -0.89200
C1231       C  0.24869583  0.80719670  0.96492912     0.84700
O1232       O  0.14106415  0.90644160  0.97537166    -0.67400
O1233       O  0.28434535  0.91318418  0.02574116    -0.86700
C1234       C  0.18028010  0.91641661  0.96636719     0.85500
C1235       C  0.05623650  0.77343717  0.96308264     1.07100
H1236       H  0.22319007  0.87883391  0.99741393     0.38900
O1237       O  0.21277485  0.84374235  0.99962482    -1.09400
O1238       O  0.20517016  0.80989296  0.04016372    -0.66000
Ni1239     Ni  0.16660568  0.82370007  0.01995016     1.26300
O1240       O  0.19340410  0.88440537  0.96688987    -0.66200
O1241       O  0.20596310  0.89814220  0.02804734    -0.78500
C1242       C  0.06495000  0.79980520  0.03336308     0.84900
O1243       O  0.10880511  0.80499453  0.03705328    -0.65700
Ni1244     Ni  0.27844225  0.86500271  0.00428293     1.27400
Ni1245     Ni  0.16389757  0.81530846  0.97843670     1.26100
H1246       H  0.09911619  0.78536043  0.99865203     0.39500
O1247       O  0.46873922  0.69966211  0.23257160    -0.74000
O1248       O  0.07345427  0.73240995  0.27167430    -0.74100
O1249       O  0.06433376  0.72369649  0.22977775    -0.74100
O1250       O  0.48107377  0.70452328  0.27432820    -0.74200
O1251       O  0.45089020  0.62042945  0.27277729    -0.74100
O1252       O  0.03879340  0.64109995  0.23250754    -0.74100
O1253       O  0.04351001  0.64881698  0.27428974    -0.74100
O1254       O  0.44386258  0.61688121  0.23210702    -0.74100
Ni1255     Ni  0.02273982  0.71812312  0.25155329     1.25400
Ni1256     Ni  0.99308796  0.62882535  0.25276424     1.25400
C1257       C  0.44087126  0.65354566  0.22505703     0.88100
C1258       C  0.06922554  0.69542144  0.28180731     0.88100
C1259       C  0.06241702  0.68370535  0.22313298     0.88100
C1260       C  0.45570661  0.65891038  0.28189477     0.88300
O1261       O  0.46981873  0.92827020  0.27326661    -0.74000
O1262       O  0.39406320  0.94587850  0.23332010    -0.74100
O1263       O  0.39237671  0.93709096  0.27325797    -0.74100
O1264       O  0.47267960  0.93930188  0.23223624    -0.74200
O1265       O  0.41839661  0.85328072  0.22808459    -0.74100
O1266       O  0.33932849  0.85095415  0.26999120    -0.74100
O1267       O  0.33966818  0.86019391  0.22950888    -0.74100
O1268       O  0.41796018  0.84305279  0.26854091    -0.74100
Ni1269     Ni  0.43441744  0.94078451  0.25313617     1.25400
Ni1270     Ni  0.37694616  0.84858271  0.24887990     1.25400
C1271       C  0.44671634  0.88247619  0.28015793     0.88100
C1272       C  0.35720182  0.90626006  0.22372042     0.88100
C1273       C  0.35496101  0.89372314  0.27934614     0.88100
C1274       C  0.45570308  0.89719995  0.22221915     0.88300
C1275       C  0.28141014  0.52497352  0.44731827     0.02700
C1276       C  0.24587935  0.96638130  0.44520142     0.02600
C1277       C  0.24697925  0.94325100  0.42706828    -0.17900
C1278       C  0.28114832  0.97155957  0.41208483     0.02700
C1279       C  0.31521426  0.52711250  0.41447744     0.02600
C1280       C  0.31215242  0.55188229  0.43111126    -0.17900
H1281       H  0.33735161  0.59395468  0.43166450     0.04700
H1282       H  0.22038552  0.90184461  0.42430830     0.04700
O1283       O  0.11391599  0.96441057  0.22988731    -0.74000
O1284       O  0.15884036  0.55638984  0.27416936    -0.74100
O1285       O  0.16293401  0.56727064  0.23385506    -0.74100
O1286       O  0.10934786  0.95511286  0.27078248    -0.74200
O1287       O  0.18454649  0.96551996  0.27316728    -0.74100
O1288       O  0.23648184  0.57510678  0.23422013    -0.74100
O1289       O  0.23441402  0.56814247  0.27484909    -0.74100
O1290       O  0.18704540  0.97061186  0.23206435    -0.74100
Ni1291     Ni  0.13416643  0.51015746  0.25148215     1.25400
Ni1292     Ni  0.21410370  0.52030614  0.25302882     1.25400
C1293       C  0.14434830  0.95416099  0.22295900     0.88100
C1294       C  0.20255987  0.57454663  0.28279246     0.88100
C1295       C  0.20718696  0.58806976  0.22721898     0.88100
C1296       C  0.13977573  0.94565105  0.27939209     0.88300
C1297       C  0.27533185  0.96650466  0.04894758     0.02700
C1298       C  0.29095019  0.52178793  0.05067713     0.02600
C1299       C  0.30296789  0.54632904  0.06969618    -0.17900
C1300       C  0.30662540  0.52335430  0.08670720     0.02700
C1301       C  0.29441359  0.97068324  0.08478586     0.02600
C1302       C  0.27726833  0.94342532  0.06667438    -0.17900
H1303       H  0.26595487  0.90328840  0.06648289     0.04700
H1304       H  0.31351553  0.58590020  0.07155977     0.04700
C1305       C  0.25094329  0.71722687  0.45956040     0.02700
C1306       C  0.23046435  0.74998558  0.45910677     0.02600
C1307       C  0.21349130  0.75707067  0.44027407    -0.17900
C1308       C  0.20770479  0.72838211  0.42314018     0.02700
C1309       C  0.22364681  0.69448464  0.42400827     0.02600
C1310       C  0.24423178  0.68904898  0.44183973    -0.17900
H1311       H  0.25917592  0.66522188  0.44120128     0.04700
H1312       H  0.19836832  0.78080094  0.43921309     0.04700
C1313       C  0.27222868  0.74001987  0.05464099     0.02700
C1314       C  0.23930345  0.76021985  0.05329930     0.02600
C1315       C  0.20566167  0.74735572  0.06911426    -0.17900
C1316       C  0.20695843  0.72343534  0.08662345     0.02700
C1317       C  0.24331429  0.71154874  0.08885891     0.02600
C1318       C  0.27352215  0.71822963  0.07305076    -0.17900
H1319       H  0.29975174  0.70687026  0.07563006     0.04700
H1320       H  0.17809864  0.75725261  0.06827859     0.04700
C1321       C  0.47466811  0.80464487  0.45227700     0.02700
C1322       C  0.02783718  0.82755056  0.45360635     0.02600
C1323       C  0.05188508  0.84896484  0.43561410    -0.17900
C1324       C  0.02608875  0.84812624  0.41821594     0.02700
C1325       C  0.47354039  0.82814766  0.41725762     0.02600
C1326       C  0.44904796  0.80591896  0.43484665    -0.17900
H1327       H  0.40836464  0.78803236  0.43470320     0.04700
H1328       H  0.09236108  0.86637732  0.43485246     0.04700
C1329       C  0.02853267  0.78426674  0.05028760     0.02700
C1330       C  0.47893332  0.77854928  0.04987183     0.02600
C1331       C  0.46408043  0.78955132  0.06767461    -0.17900
C1332       C  0.49359276  0.80459837  0.08549730     0.02700
C1333       C  0.03741118  0.80278221  0.08650822     0.02600
C1334       C  0.05321645  0.79173200  0.06932712    -0.17900
H1335       H  0.08903424  0.79532153  0.07078697     0.04700
H1336       H  0.42883000  0.78727620  0.06768838     0.07100
C1337       C  0.06782631  0.85741443  0.32247817    -0.22100
C1338       C  0.09994139  0.88907952  0.33864019     0.09900
C1339       C  0.14564309  0.93649773  0.33492607     0.10300
C1340       C  0.15952957  0.95018597  0.31523735    -0.17000
C1341       C  0.12669069  0.92017301  0.29895102    -0.27400
C1342       C  0.07946558  0.87362628  0.30268293     0.18600
C1343       C  0.08189002  0.87816607  0.35923607     0.12600
C1344       C  0.17824943  0.97369004  0.35192311    -0.11800
H1345       H  0.19434059  0.98697338  0.31258902     0.12900
C1346       C  0.04027337  0.84071731  0.28633533    -0.22600
H1347       H  0.03218513  0.82142679  0.32524147     0.08500
C1348       C  0.06375651  0.90587708  0.36753978     0.04900
C1349       C  0.05281622  0.90103572  0.38769816    -0.19800
C1350       C  0.05307571  0.86351663  0.39917581    -0.12100
C1351       C  0.07090424  0.83502353  0.39080938     0.13600
C1352       C  0.08707645  0.84434000  0.37112147    -0.22600
C1353       C  0.05178715  0.93685752  0.35441685    -0.05600
H1354       H  0.53524748  0.91984881  0.39034223     0.15100
C1355       C  0.07016531  0.79267720  0.40203009    -0.15800
H1356       H  0.10237794  0.82416092  0.36480485     0.09400
H1357       H  0.00504242  0.83871762  0.28879645     0.07300
H1358       H  0.03123338  0.80075750  0.28670343     0.08500
H1359       H  0.05308433  0.85579925  0.27125780     0.07500
H1360       H  0.18785384  0.95312120  0.36259644     0.02400
H1361       H  0.15823587  0.98724946  0.36008542     0.02900
H1362       H  0.21283900  0.00915200  0.34676239     0.06400
H1363       H  0.53675287  0.95330819  0.35898552     0.05400
H1364       H  0.02403032  0.91008333  0.34279376    -0.00400
H1365       H  0.08485993  0.96674248  0.34636284     0.01100
H1366       H  0.08189516  0.77253499  0.39256454     0.04700
H1367       H  0.03117765  0.76330311  0.40673629     0.06700
H1368       H  0.09702114  0.80913723  0.41524935     0.07500
C1369       C  0.12887309  0.89186139  0.12834761    -0.22100
C1370       C  0.11346670  0.85752480  0.14439428     0.09900
C1371       C  0.08195461  0.80331038  0.13985911     0.10300
C1372       C  0.05940218  0.78594998  0.12046311    -0.17000
C1373       C  0.07070419  0.82110555  0.10513883    -0.27400
C1374       C  0.10913084  0.87432171  0.10877587     0.18600
C1375       C  0.12233520  0.88053035  0.16521832     0.12600
C1376       C  0.07113640  0.76328383  0.15509737    -0.11800
H1377       H  0.03164279  0.74481976  0.11735316     0.12900
C1378       C  0.12814238  0.91402069  0.09260667    -0.22600
H1379       H  0.15455688  0.93335409  0.13133866     0.08500
C1380       C  0.14534751  0.87166470  0.18189988     0.04900
C1381       C  0.14759739  0.89236567  0.20082204    -0.19800
C1382       C  0.13239742  0.92619257  0.20346691    -0.12100
C1383       C  0.11430337  0.93938264  0.18659982     0.13600
C1384       C  0.10785563  0.91515604  0.16806724    -0.22600
C1385       C  0.17228915  0.84514723  0.18053310    -0.05600
H1386       H  0.16453251  0.88462416  0.21346509     0.15100
C1387       C  0.10633235  0.98250556  0.18757654    -0.15800
H1388       H  0.09218952  0.92426041  0.15550190     0.09400
H1389       H  0.16914370  0.93153175  0.09092924     0.07300
H1390       H  0.12313052  0.94537643  0.09669751     0.08500
H1391       H  0.10840190  0.89721095  0.07787772     0.07500
H1392       H  0.05786934  0.76976893  0.16901776     0.02400
H1393       H  0.10545475  0.76477401  0.15883729     0.02900
H1394       H  0.04357000  0.72311687  0.14914538     0.06400
H1395       H  0.21099876  0.86981076  0.18774754     0.05400
H1396       H  0.17698718  0.83788969  0.16498372    -0.00400
H1397       H  0.15095394  0.80862021  0.18871917     0.01100
H1398       H  0.14275235  0.01874255  0.19250182     0.04700
H1399       H  0.07675936  0.97324892  0.19813274     0.06700
H1400       H  0.09463256  0.98975444  0.17289263     0.07500
C1401       C  0.24735684  0.60996286  0.33740915    -0.22100
C1402       C  0.21257804  0.61971378  0.34422431     0.09900
C1403       C  0.17927405  0.62052234  0.32996954     0.10300
C1404       C  0.17939005  0.60902795  0.30992590    -0.17000
C1405       C  0.21310260  0.59787303  0.30316021    -0.27400
C1406       C  0.24920649  0.60046553  0.31707753     0.18600
C1407       C  0.21518016  0.63279634  0.36591140     0.12600
C1408       C  0.14243313  0.63290187  0.33494247    -0.11800
H1409       H  0.15185984  0.60798659  0.29950881     0.12900
C1410       C  0.28936176  0.59272384  0.31100467    -0.22600
H1411       H  0.27188656  0.60781649  0.34827858     0.08500
C1412       C  0.17370043  0.60546383  0.37853074     0.04900
C1413       C  0.17828084  0.62438217  0.39802735    -0.19800
C1414       C  0.22391283  0.66864876  0.40554676    -0.12100
C1415       C  0.26678751  0.69262238  0.39377367     0.13600
C1416       C  0.26137722  0.67523661  0.37403616    -0.22600
C1417       C  0.12402244  0.55688434  0.37197096    -0.05600
H1418       H  0.14547730  0.60563389  0.40717444     0.15100
C1419       C  0.31784754  0.73888487  0.40101948    -0.15800
H1420       H  0.29299791  0.69669865  0.36452295     0.09400
H1421       H  0.31310876  0.59591706  0.32408191     0.07300
H1422       H  0.31429903  0.62292580  0.30032112     0.08500
H1423       H  0.27240180  0.55356135  0.30423705     0.07500
H1424       H  0.14670390  0.64559801  0.35063729     0.02400
H1425       H  0.10347657  0.59790685  0.33169481     0.02900
H1426       H  0.14884280  0.66476461  0.32527225     0.06400
H1427       H  0.09275465  0.56225383  0.37354906     0.05400
H1428       H  0.11700989  0.52438280  0.38145542    -0.00400
H1429       H  0.12384572  0.54654706  0.35627630     0.01100
H1430       H  0.34618281  0.72894955  0.40048080     0.04700
H1431       H  0.31862426  0.75175768  0.41648287     0.06700
H1432       H  0.32892981  0.77180825  0.39110085     0.07500
C1433       C  0.20071694  0.64615794  0.17837980    -0.22100
C1434       C  0.24846453  0.66445514  0.17117486     0.09900
C1435       C  0.28669828  0.67095793  0.18481421     0.10300
C1436       C  0.27309487  0.64920079  0.20381330    -0.17000
C1437       C  0.22282399  0.62331679  0.20987366    -0.27400
C1438       C  0.18723431  0.62599591  0.19748617     0.18600
C1439       C  0.25474619  0.67303076  0.14920875     0.12600
C1440       C  0.34142770  0.70019736  0.17962380    -0.11800
H1441       H  0.30180177  0.65168321  0.21382240     0.12900
C1442       C  0.13448448  0.60663498  0.20366165    -0.22600
H1443       H  0.17284258  0.64567661  0.16850662     0.08500
C1444       C  0.21968626  0.63343478  0.13519853     0.04900
C1445       C  0.21954970  0.64590602  0.11509070    -0.19800
C1446       C  0.25321769  0.69646146  0.10860315    -0.12100
C1447       C  0.29230700  0.73391241  0.12182896     0.13600
C1448       C  0.29277230  0.72177940  0.14198625    -0.22600
C1449       C  0.18251922  0.57772054  0.14116092    -0.05600
H1450       H  0.19137327  0.61653868  0.10448635     0.15100
C1451       C  0.33235730  0.78710819  0.11466234    -0.15800
H1452       H  0.32154667  0.75151052  0.15210661     0.09400
H1453       H  0.11168622  0.56428917  0.20613209     0.07300
H1454       H  0.11309664  0.61276178  0.19193282     0.08500
H1455       H  0.13691642  0.62783838  0.21742807     0.07500
H1456       H  0.35743588  0.74225137  0.17861245     0.02400
H1457       H  0.34479068  0.68510598  0.16526924     0.02900
H1458       H  0.36484736  0.69695372  0.19137954     0.06400
H1459       H  0.16111976  0.55187006  0.12796022     0.05400
H1460       H  0.15388244  0.57397231  0.15103268    -0.00400
H1461       H  0.20289473  0.56280729  0.14905072     0.01100
H1462       H  0.31492601  0.80782235  0.10963008     0.04700
H1463       H  0.35163583  0.78361365  0.10201625     0.06700
H1464       H  0.36185989  0.81097616  0.12649046     0.07500
C1465       C  0.44483616  0.90776295  0.33565629    -0.22100
C1466       C  0.40713381  0.85770848  0.34144481     0.09900
C1467       C  0.37734456  0.81924606  0.32665570     0.10300
C1468       C  0.39412857  0.82728499  0.30731735    -0.17000
C1469       C  0.43768666  0.87522420  0.30180843    -0.27400
C1470       C  0.46172625  0.91709716  0.31609714     0.18600
C1471       C  0.41337475  0.84219364  0.36162163     0.12600
C1472       C  0.32900552  0.76880363  0.33135744    -0.11800
H1473       H  0.37170226  0.79581652  0.29644003     0.12900
C1474       C  0.50637269  0.97097723  0.31146975    -0.22600
H1475       H  0.46432168  0.93853625  0.34692670     0.08500
C1476       C  0.43025993  0.80888059  0.36364991     0.04900
C1477       C  0.44217021  0.79922065  0.38262808    -0.19800
C1478       C  0.44376402  0.82660540  0.39939962    -0.12100
C1479       C  0.42663631  0.85973001  0.39760788     0.13600
C1480       C  0.41089777  0.86661351  0.37866710    -0.22600
C1481       C  0.44429473  0.79051163  0.34587309    -0.05600
H1482       H  0.95967976  0.77849532  0.38540879     0.15100
C1483       C  0.42719602  0.88952480  0.41538771    -0.15800
H1484       H  0.39925832  0.89309554  0.37702448     0.09400
H1485       H  0.53690578  0.96872201  0.30531153     0.07300
H1486       H  0.52259986  0.99669391  0.32503496     0.08500
H1487       H  0.49449591  0.98978005  0.30073891     0.07500
H1488       H  0.32056684  0.76885705  0.34717913     0.02400
H1489       H  0.33166823  0.73540239  0.32828614     0.02900
H1490       H  0.29702615  0.76389091  0.32198989     0.06400
H1491       H  0.97497750  0.78515557  0.35150130     0.05400
H1492       H  0.46245041  0.82089214  0.33456900    -0.00400
H1493       H  0.41054773  0.75486339  0.33891599     0.01100
H1494       H  0.41408948  0.91483877  0.41118350     0.04700
H1495       H  0.46635046  0.91458792  0.42216244     0.06700
H1496       H  0.40151413  0.86195215  0.42661259     0.07500
C1497       C  0.44222586  0.80719754  0.13493242    -0.22100
C1498       C  0.47704536  0.85989885  0.14080290     0.09900
C1499       C  0.50897975  0.89545547  0.12628124     0.10300
C1500       C  0.50937055  0.87631013  0.10747300    -0.17000
C1501       C  0.47988138  0.82301494  0.10282778    -0.27400
C1502       C  0.44308552  0.78839767  0.11598735     0.18600
C1503       C  0.47960039  0.87539507  0.16215975     0.12600
C1504       C  0.54501735  0.95335425  0.12985274    -0.11800
H1505       H  0.53539799  0.90299660  0.09668579     0.12900
C1506       C  0.90610360  0.72885230  0.10999277    -0.22600
H1507       H  0.41528085  0.78047912  0.14546984     0.08500
C1508       C  0.48809048  0.85072293  0.17809743     0.04900
C1509       C  0.48307726  0.86070811  0.19779626    -0.19800
C1510       C  0.47460310  0.89857568  0.20242296    -0.12100
C1511       C  0.47246127  0.92817360  0.18684703     0.13600
C1512       C  0.47117444  0.91368523  0.16689902    -0.22600
C1513       C  0.50138202  0.81259761  0.17519301    -0.05600
H1514       H  0.48539199  0.83831198  0.20968999     0.15100
C1515       C  0.47237452  0.97535794  0.19104017    -0.15800
H1516       H  0.46440582  0.93293317  0.15497023     0.09400
H1517       H  0.88607562  0.72529489  0.09554352     0.07300
H1518       H  0.87625917  0.70756483  0.12094161     0.08500
H1519       H  0.92688893  0.71008552  0.10839521     0.07500
H1520       H  0.54622165  0.96648523  0.14519591     0.02400
H1521       H  0.53379974  0.97365721  0.11960172     0.02900
H1522       H  0.58414462  0.96572117  0.12666973     0.06400
H1523       H  0.53494520  0.82336106  0.18501506     0.05400
H1524       H  0.51088119  0.81151286  0.15964049    -0.00400
H1525       H  0.46865155  0.77436296  0.17969057     0.01100
H1526       H  0.50867079  0.00520717  0.19904295     0.04700
H1527       H  0.44085955  0.96535321  0.20039751     0.06700
H1528       H  0.46832683  0.99216149  0.17707851     0.07500
C1529       C  0.29695521  0.88825501  0.37501607    -0.22100
C1530       C  0.28995067  0.90616464  0.35680685     0.09900
C1531       C  0.27605246  0.94171196  0.35683378     0.10300
C1532       C  0.27271485  0.96143176  0.37501346    -0.17000
C1533       C  0.28007291  0.94436116  0.39339690    -0.27400
C1534       C  0.29075262  0.90573866  0.39334652     0.18600
C1535       C  0.30747158  0.89726210  0.33805923     0.12600
C1536       C  0.26749091  0.96069308  0.33744454    -0.11800
H1537       H  0.26604148  0.99187465  0.37494507     0.12900
C1538       C  0.29881415  0.88510247  0.41242517    -0.22600
H1539       H  0.30935030  0.86224901  0.37494870     0.08500
C1540       C  0.35678994  0.93485505  0.33216533     0.04900
C1541       C  0.36912235  0.93421084  0.31252455    -0.19800
C1542       C  0.33519589  0.89379611  0.29892321    -0.12100
C1543       C  0.28689272  0.85373420  0.30526394     0.13600
C1544       C  0.27249084  0.85853044  0.32421411    -0.22600
C1545       C  0.39559260  0.97758053  0.34631659    -0.05600
H1546       H  0.40660162  0.96481600  0.30806586     0.15100
C1547       C  0.25054449  0.80629470  0.29235806    -0.15800
H1548       H  0.23377286  0.83238894  0.32817499     0.09400
H1549       H  0.31030927  0.85804652  0.40951626     0.07300
H1550       H  0.26309752  0.86316034  0.42043035     0.08500
H1551       H  0.32899445  0.91746524  0.42217558     0.07500
H1552       H  0.23012012  0.92994640  0.33045485     0.02400
H1553       H  0.29666635  0.96933096  0.32687388     0.02900
H1554       H  0.27036911  0.99741319  0.33958541     0.06400
H1555       H  0.43207072  0.00452479  0.33920657     0.05400
H1556       H  0.40303903  0.96080610  0.35945448    -0.00400
H1557       H  0.38074730  0.00005003  0.35136798     0.01100
H1558       H  0.21482725  0.77909625  0.29988481     0.04700
H1559       H  0.26761153  0.78435577  0.28934027     0.06700
H1560       H  0.24133183  0.81793978  0.27806846     0.07500
C1561       C  0.34890038  0.93558875  0.12717584    -0.22100
C1562       C  0.32005783  0.93536358  0.14244690     0.09900
C1563       C  0.27932319  0.93987808  0.13777931     0.10300
C1564       C  0.26604799  0.94092327  0.11793557    -0.17000
C1565       C  0.29694205  0.94541283  0.10281833    -0.27400
C1566       C  0.33837633  0.94151443  0.10730777     0.18600
C1567       C  0.33163335  0.92879258  0.16312744     0.12600
C1568       C  0.24982788  0.94565437  0.15309634    -0.11800
H1569       H  0.23497557  0.94495339  0.11441150     0.12900
C1570       C  0.37408217  0.94699915  0.09192421    -0.22600
H1571       H  0.38131015  0.93383730  0.13087705     0.08500
C1572       C  0.32073943  0.88075438  0.16948606     0.04900
C1573       C  0.32364843  0.87283985  0.18979124    -0.19800
C1574       C  0.34138340  0.91349241  0.20382116    -0.12100
C1575       C  0.35592049  0.96299483  0.19711511     0.13600
C1576       C  0.34974092  0.96971243  0.17689932    -0.22600
C1577       C  0.30892538  0.83885476  0.15482972    -0.05600
H1578       H  0.31586375  0.83575020  0.19447735     0.15100
C1579       C  0.38033052  0.00950575  0.21086988    -0.15800
H1580       H  0.35870481  0.00683361  0.17176492     0.09400
H1581       H  0.37433176  0.91144793  0.09159367     0.07300
H1582       H  0.41308433  0.98108860  0.09595649     0.08500
H1583       H  0.36347329  0.95249383  0.07669155     0.07500
H1584       H  0.25336513  0.98293354  0.15135757     0.02400
H1585       H  0.26045641  0.94348152  0.16871002     0.02900
H1586       H  0.21014943  0.91417843  0.15024606     0.06400
H1587       H  0.27463265  0.82702792  0.14535239     0.05400
H1588       H  0.30299981  0.80475372  0.16260977    -0.00400
H1589       H  0.34190012  0.85363548  0.14554222     0.01100
H1590       H  0.38692843  0.04336325  0.20290292     0.04700
H1591       H  0.41846337  0.02083851  0.21636974     0.06700
H1592       H  0.35591002  0.00063145  0.22359567     0.07500
C1593       C  0.39061061  0.59002869  0.32913342    -0.22100
C1594       C  0.42139040  0.62766349  0.34393008     0.09900
C1595       C  0.46195984  0.67709427  0.33812938     0.10300
C1596       C  0.46912584  0.68828316  0.31762285    -0.17000
C1597       C  0.43816512  0.65013594  0.30270598    -0.27400
C1598       C  0.39847162  0.59999764  0.30875145     0.18600
C1599       C  0.40604802  0.61417216  0.36499527     0.12600
C1600       C  0.50012878  0.71630830  0.35340274    -0.11800
H1601       H  0.50149213  0.72563764  0.31326544     0.12900
C1602       C  0.36377665  0.55636908  0.29388775    -0.22600
H1603       H  0.35957218  0.55244334  0.33365582     0.08500
C1604       C  0.37164649  0.62361973  0.37282994     0.04900
C1605       C  0.34311920  0.59541697  0.38910443    -0.19800
C1606       C  0.35088683  0.56031912  0.39878113    -0.12100
C1607       C  0.39133825  0.55723351  0.39295464     0.13600
C1608       C  0.41715492  0.58276268  0.37574782    -0.22600
C1609       C  0.36660368  0.66502790  0.36450393    -0.05600
H1610       H  0.31410746  0.60026666  0.39414506     0.15100
C1611       C  0.40546207  0.02372436  0.40460972    -0.15800
H1612       H  0.44475430  0.57642619  0.37043236     0.09400
H1613       H  0.33063207  0.52309327  0.30101931     0.07300
H1614       H  0.38418309  0.54108889  0.28710178     0.08500
H1615       H  0.34901922  0.57032386  0.28210481     0.07500
H1616       H  0.51941610  0.70054294  0.36111001     0.02400
H1617       H  0.48202208  0.72485623  0.36496491     0.02900
H1618       H  0.52928028  0.75285313  0.34632248     0.06400
H1619       H  0.33886564  0.66758053  0.37264764     0.05400
H1620       H  0.35641373  0.65885839  0.34833946    -0.00400
H1621       H  0.40317222  0.70235994  0.36676787     0.01100
H1622       H  0.39877477  0.99109460  0.39508462     0.04700
H1623       H  0.38453962  0.00802548  0.41843113     0.06700
H1624       H  0.44649974  0.04914088  0.40912046     0.07500
C1625       C  0.30907596  0.58318241  0.13658523    -0.22100
C1626       C  0.35233718  0.58951245  0.14606521     0.09900
C1627       C  0.38214039  0.57799086  0.13503677     0.10300
C1628       C  0.36981209  0.56381285  0.11487954    -0.17000
C1629       C  0.32456058  0.55331855  0.10595485    -0.27400
C1630       C  0.29334966  0.56237673  0.11697073     0.18600
C1631       C  0.36867923  0.61195763  0.16680417     0.12600
C1632       C  0.42684936  0.57920442  0.14401536    -0.11800
H1633       H  0.39336898  0.55610775  0.10649207     0.12900
C1634       C  0.24200522  0.54706527  0.10884993    -0.22600
H1635       H  0.28641412  0.59216254  0.14485264     0.08500
C1636       C  0.41634399  0.65889837  0.17027097     0.04900
C1637       C  0.43798911  0.67376761  0.18974198    -0.19800
C1638       C  0.41105249  0.64446646  0.20609560    -0.12100
C1639       C  0.35955762  0.60294006  0.20297135     0.13600
C1640       C  0.33903022  0.58598479  0.18322529    -0.22600
C1641       C  0.44284861  0.69385608  0.15324552    -0.05600
H1642       H  0.47695285  0.70694580  0.19209957     0.15100
C1643       C  0.32739405  0.57599102  0.22046952    -0.15800
H1644       H  0.30090990  0.55159153  0.18068129     0.09400
H1645       H  0.24276761  0.58251411  0.10673971     0.07300
H1646       H  0.21279720  0.52099224  0.11939636     0.08500
H1647       H  0.23047594  0.52604350  0.09426279     0.07500
H1648       H  0.43311258  0.58944801  0.16003270     0.02400
H1649       H  0.46175291  0.60786522  0.13628495     0.02900
H1650       H  0.42034416  0.54042907  0.14230533     0.06400
H1651       H  0.45084222  0.67559157  0.14128152     0.05400
H1652       H  0.47905323  0.72804990  0.15831023    -0.00400
H1653       H  0.41918671  0.70658549  0.14708891     0.01100
H1654       H  0.28798258  0.54431279  0.21555631     0.04700
H1655       H  0.32681746  0.60481854  0.22988302     0.06700
H1656       H  0.34347976  0.55941622  0.23009145     0.07500
C1657       C  0.13026134  0.76044334  0.33346884    -0.22100
C1658       C  0.11094692  0.71700358  0.34559605     0.09900
C1659       C  0.07224394  0.66777473  0.33716564     0.10300
C1660       C  0.06196892  0.66207773  0.31631943    -0.17000
C1661       C  0.08635405  0.70484523  0.30358951    -0.27400
C1662       C  0.11832125  0.75533534  0.31274119     0.18600
C1663       C  0.13608239  0.72376460  0.36599081     0.12600
C1664       C  0.04216737  0.62075128  0.34984290    -0.11800
H1665       H  0.03354033  0.62377149  0.31002871     0.12900
C1666       C  0.13975488  0.80438138  0.30109643    -0.22600
H1667       H  0.15603358  0.79869736  0.34032366     0.08500
C1668       C  0.18877026  0.74476711  0.36840467     0.04900
C1669       C  0.21143160  0.75186796  0.38753134    -0.19800
C1670       C  0.18258176  0.73189189  0.40439357    -0.12100
C1671       C  0.12967658  0.70928275  0.40218930     0.13600
C1672       C  0.10765755  0.70724340  0.38323829    -0.22600
C1673       C  0.22182242  0.75454763  0.35130132    -0.05600
H1674       H  0.25189731  0.76958995  0.38908394     0.15100
C1675       C  0.09474793  0.68503750  0.41921738    -0.15800
H1676       H  0.06754873  0.69099277  0.38207705     0.09400
H1677       H  0.16569665  0.83988912  0.31050353     0.07300
H1678       H  0.10844517  0.80703525  0.29520820     0.08500
H1679       H  0.16106979  0.80445945  0.28846695     0.07500
H1680       H  0.01909660  0.62691053  0.35958450     0.02400
H1681       H  0.06703508  0.61434768  0.35945584     0.02900
H1682       H  0.01625132  0.58490692  0.34065745     0.06400
H1683       H  0.25675876  0.79409956  0.35274164     0.05400
H1684       H  0.20321010  0.74883736  0.33643366    -0.00400
H1685       H  0.23338864  0.72717484  0.35195874     0.01100
H1686       H  0.07630647  0.70584693  0.42181381     0.04700
H1687       H  0.11440171  0.68597223  0.43335662     0.06700
H1688       H  0.06486568  0.64363609  0.41534298     0.07500
C1689       C  0.06703735  0.65331082  0.16841379    -0.22100
C1690       C  0.11791781  0.68958342  0.16405821     0.09900
C1691       C  0.15189558  0.72108217  0.18035026     0.10300
C1692       C  0.13331512  0.72019317  0.19924576    -0.17000
C1693       C  0.08242147  0.68404919  0.20324970    -0.27400
C1694       C  0.05044017  0.64716208  0.18795535     0.18600
C1695       C  0.13384127  0.69624980  0.14254187     0.12600
C1696       C  0.20823923  0.75424765  0.17869034    -0.11800
H1697       H  0.15926954  0.74643915  0.21113811     0.12900
C1698       C  0.99954840  0.59953386  0.19225818    -0.22600
H1699       H  0.03966505  0.62916494  0.15658891     0.08500
C1700       C  0.11856968  0.65401419  0.12899671     0.04900
C1701       C  0.13788805  0.66425417  0.10969686    -0.19800
C1702       C  0.17372978  0.71507360  0.10361439    -0.12100
C1703       C  0.18359681  0.75671980  0.11590325     0.13600
C1704       C  0.16432767  0.74693073  0.13510609    -0.22600
C1705       C  0.08449056  0.59777324  0.13463794    -0.05600
H1706       H  0.12761541  0.63203536  0.09972713     0.15100
C1707       C  0.21440763  0.81170511  0.10888464    -0.15800
H1708       H  0.17475493  0.77971637  0.14458889     0.09400
H1709       H  0.98195060  0.57232756  0.17920350     0.07300
H1710       H  0.97412705  0.61079560  0.19680031     0.08500
H1711       H  0.00421517  0.57774763  0.20422136     0.07500
H1712       H  0.21938504  0.74547921  0.16469121     0.02400
H1713       H  0.22681085  0.74628302  0.19113617     0.02900
H1714       H  0.22201600  0.79573080  0.17953016     0.06400
H1715       H  0.09186827  0.57286660  0.12570655     0.05400
H1716       H  0.04418717  0.58357061  0.13149925    -0.00400
H1717       H  0.09073353  0.59236785  0.15055801     0.01100
H1718       H  0.19508905  0.81550208  0.09554127     0.04700
H1719       H  0.25285253  0.82323555  0.10514694     0.06700
H1720       H  0.21828981  0.83893116  0.12056611     0.07500
C1721       C  0.40806341  0.76499437  0.82899102    -0.22100
C1722       C  0.36253249  0.75811713  0.83363980     0.09900
C1723       C  0.32549105  0.74352610  0.81771832     0.10300
C1724       C  0.33840101  0.74424650  0.79786613    -0.17000
C1725       C  0.38433191  0.75133425  0.79352589    -0.27400
C1726       C  0.41750321  0.75731009  0.80956118     0.18600
C1727       C  0.35552539  0.76486952  0.85524675     0.12600
C1728       C  0.27168578  0.72484432  0.82071771    -0.11800
H1729       H  0.31203097  0.73831212  0.78569925     0.12900
C1730       C  0.46356071  0.75647974  0.80707397    -0.22600
H1731       H  0.43591152  0.77491431  0.84089269     0.08500
C1732       C  0.31990549  0.72301846  0.86670801     0.04900
C1733       C  0.31266454  0.73153578  0.88647667    -0.19800
C1734       C  0.33922871  0.78170887  0.89504142    -0.12100
C1735       C  0.38019694  0.82260506  0.88478696     0.13600
C1736       C  0.38902356  0.81298773  0.86535702    -0.22600
C1737       C  0.28968409  0.66856221  0.85874679    -0.05600
H1738       H  0.28370063  0.69909079  0.89481901     0.15100
C1739       C  0.41505076  0.87636799  0.89399737    -0.15800
H1740       H  0.42169949  0.84369295  0.85794366     0.09400
H1741       H  0.45868260  0.72282860  0.81491369     0.07300
H1742       H  0.49688162  0.79245933  0.81386446     0.08500
H1743       H  0.47119493  0.75246092  0.79162778     0.07500
H1744       H  0.26399328  0.72180380  0.83656719     0.02400
H1745       H  0.24624300  0.68530551  0.81388528     0.02900
H1746       H  0.26273549  0.75077719  0.81336454     0.06400
H1747       H  0.24896486  0.65296719  0.85967502     0.05400
H1748       H  0.30022570  0.64653681  0.86806541    -0.00400
H1749       H  0.29676335  0.66420352  0.84312045     0.01100
H1750       H  0.45436308  0.88640230  0.89533689     0.04700
H1751       H  0.40427461  0.87961724  0.90914420     0.06700
H1752       H  0.41449241  0.90522146  0.88445180     0.07500
C1753       C  0.10405519  0.87287476  0.81895427    -0.22100
C1754       C  0.09089495  0.89875166  0.83199535     0.09900
C1755       C  0.06320352  0.91807046  0.82324920     0.10300
C1756       C  0.04787241  0.90881617  0.80294260    -0.17000
C1757       C  0.05822050  0.88020812  0.79039746    -0.27400
C1758       C  0.08775465  0.86274138  0.79857565     0.18600
C1759       C  0.10764719  0.90490563  0.85412351     0.12600
C1760       C  0.04884336  0.94923661  0.83437683    -0.11800
H1761       H  0.02536024  0.92260389  0.79708892     0.12900
C1762       C  0.10019307  0.83091413  0.78645998    -0.22600
H1763       H  0.12468153  0.85719775  0.82495897     0.08500
C1764       C  0.07593493  0.89566421  0.87032107     0.04900
C1765       C  0.09680780  0.90814531  0.89012681    -0.19800
C1766       C  0.14627355  0.92200057  0.89480209    -0.12100
C1767       C  0.17315584  0.91881898  0.87931093     0.13600
C1768       C  0.15558096  0.91428424  0.85931034    -0.22600
C1769       C  0.01967469  0.87034296  0.86768263    -0.05600
H1770       H  0.07437428  0.90741226  0.90200104     0.15100
C1771       C  0.23026880  0.43688039  0.88360645    -0.15800
H1772       H  0.17989772  0.91775494  0.84772575     0.09400
H1773       H  0.06521753  0.79228500  0.78239382     0.07300
H1774       H  0.12578761  0.82350545  0.79509367     0.08500
H1775       H  0.11938079  0.85186398  0.77281594     0.07500
H1776       H  0.06755919  0.96026351  0.84925096     0.02400
H1777       H  0.00705120  0.92656305  0.83554427     0.02900
H1778       H  0.06061768  0.98529393  0.82635080     0.06400
H1779       H  0.99933509  0.83541345  0.87703543     0.05400
H1780       H  0.00562657  0.85728238  0.85212135    -0.00400
H1781       H  0.01029615  0.89800827  0.87237508     0.01100
H1782       H  0.24198795  0.44180195  0.89968710     0.04700
H1783       H  0.25922982  0.47163331  0.87557911     0.06700
H1784       H  0.22859232  0.40260462  0.87771649     0.07500
C1785       C  0.06633442  0.91771228  0.66406253    -0.22100
C1786       C  0.09881785  0.90129017  0.66106396     0.09900
C1787       C  0.11155522  0.88162756  0.67757420     0.10300
C1788       C  0.08661633  0.87233031  0.69527650    -0.17000
C1789       C  0.05029060  0.88333308  0.69750046    -0.27400
C1790       C  0.04289847  0.91023601  0.68224112     0.18600
C1791       C  0.11781794  0.90423192  0.64068588     0.12600
C1792       C  0.15026392  0.86881933  0.67707451    -0.11800
H1793       H  0.09565223  0.85620404  0.70770746     0.12900
C1794       C  0.01147545  0.93185988  0.68492166    -0.22600
H1795       H  0.05930836  0.93659604  0.65209323     0.08500
C1796       C  0.08520895  0.88736188  0.62317500     0.04900
C1797       C  0.10585886  0.89744695  0.60437314    -0.19800
C1798       C  0.15755876  0.92041035  0.60275756    -0.12100
C1799       C  0.18771435  0.92710054  0.61961855     0.13600
C1800       C  0.16926278  0.92384722  0.63841515    -0.22600
C1801       C  0.02886616  0.85946622  0.62347504    -0.05600
H1802       H  0.08212470  0.88989811  0.59101828     0.15100
C1803       C  0.24470347  0.44331215  0.61926994    -0.15800
H1804       H  0.19610071  0.93900596  0.65099013     0.09400
H1805       H  0.01053190  0.95221508  0.67145985     0.07300
H1806       H  0.02788467  0.96036825  0.69764146     0.08500
H1807       H  0.97207617  0.90022562  0.68785176     0.07500
H1808       H  0.18897366  0.90466565  0.67950355     0.02400
H1809       H  0.14651254  0.84829782  0.66296309     0.02900
H1810       H  0.14516304  0.84314719  0.68937425     0.06400
H1811       H  0.01124972  0.82569641  0.61295828     0.05400
H1812       H  0.01774126  0.88591068  0.61850842    -0.00400
H1813       H  0.01391966  0.84398392  0.63826598     0.01100
H1814       H  0.27041164  0.48252368  0.61317203     0.04700
H1815       H  0.24177280  0.41407411  0.60881031     0.06700
H1816       H  0.26082755  0.44053296  0.63363094     0.07500
C1817       C  0.33329858  0.69590603  0.66528883    -0.22100
C1818       C  0.32857145  0.73337220  0.65611243     0.09900
C1819       C  0.33484172  0.77345835  0.66831487     0.10300
C1820       C  0.34870343  0.77757925  0.68853309    -0.17000
C1821       C  0.35894769  0.74357654  0.69733091    -0.27400
C1822       C  0.34807364  0.70003520  0.68576008     0.18600
C1823       C  0.31934277  0.73187106  0.63389750     0.12600
C1824       C  0.33175386  0.81590644  0.66050420    -0.11800
H1825       H  0.35540727  0.81071593  0.69703310     0.12900
C1826       C  0.35297967  0.65873369  0.69463901    -0.22600
H1827       H  0.32951624  0.66594811  0.65592010     0.08500
C1828       C  0.35435013  0.77275871  0.62173027     0.04900
C1829       C  0.33917640  0.77660048  0.60222512    -0.19800
C1830       C  0.29021901  0.73957643  0.59417144    -0.12100
C1831       C  0.25707804  0.69568583  0.60550329     0.13600
C1832       C  0.27252773  0.69193761  0.62508792    -0.22600
C1833       C  0.40815379  0.81272108  0.62879764    -0.05600
H1834       H  0.36541835  0.80953270  0.59337593     0.15100
C1835       C  0.20463476  0.65435881  0.59731298    -0.15800
H1836       H  0.24777522  0.65845684  0.63378760     0.09400
H1837       H  0.39314843  0.67546658  0.69898755     0.07300
H1838       H  0.34061352  0.62658402  0.68381930     0.08500
H1839       H  0.32926775  0.64234566  0.70781186     0.07500
H1840       H  0.31810102  0.81003717  0.64475108     0.02400
H1841       H  0.37052455  0.85176977  0.66221745     0.02900
H1842       H  0.30580476  0.81926612  0.66975824     0.06400
H1843       H  0.41585573  0.85216482  0.62839653     0.05400
H1844       H  0.43308855  0.81067738  0.61844938    -0.00400
H1845       H  0.41756315  0.80597332  0.64407344     0.01100
H1846       H  0.18156133  0.62653736  0.60889302     0.04700
H1847       H  0.20704028  0.63277243  0.58476705     0.06700
H1848       H  0.18464127  0.67214820  0.59184693     0.07500
C1849       C  0.00454113  0.66742953  0.81745773    -0.22100
C1850       C  0.04139864  0.68887302  0.83329530     0.09900
C1851       C  0.09243723  0.71355672  0.82894850     0.10300
C1852       C  0.10493714  0.70592416  0.81010311    -0.17000
C1853       C  0.06727807  0.67816726  0.79483984    -0.27400
C1854       C  0.01764901  0.66419186  0.79798225     0.18600
C1855       C  0.02812342  0.68999987  0.85414679     0.12600
C1856       C  0.13406517  0.74812999  0.84409997    -0.11800
H1857       H  0.14392813  0.71964259  0.80772303     0.12900
C1858       C  0.98041317  0.65035750  0.78065215    -0.22600
H1859       H  0.96592460  0.65374688  0.82017221     0.08500
C1860       C  0.02563114  0.73094187  0.86126455     0.04900
C1861       C  0.02017470  0.73550157  0.88155861    -0.19800
C1862       C  0.01714246  0.69977150  0.89506405    -0.12100
C1863       C  0.02489178  0.66177410  0.88846299     0.13600
C1864       C  0.03145984  0.65821963  0.86813130    -0.22600
C1865       C  0.03373866  0.77339733  0.84821687    -0.05600
H1866       H  0.01614904  0.76593842  0.88676901     0.15100
C1867       C  0.02715567  0.62516961  0.90243538    -0.15800
H1868       H  0.04042764  0.63123179  0.86327578     0.09400
H1869       H  0.94384527  0.64218397  0.78559254     0.07300
H1870       H  0.97302988  0.61611295  0.77227072     0.08500
H1871       H  0.99651259  0.68356427  0.77040109     0.07500
H1872       H  0.12156355  0.74936417  0.85908848     0.02400
H1873       H  0.15549754  0.78864720  0.83902839     0.02900
H1874       H  0.15744377  0.73295540  0.84584261     0.06400
H1875       H  0.06925777  0.80900003  0.85383137     0.05400
H1876       H  0.00166816  0.77740886  0.84921204    -0.00400
H1877       H  0.03844306  0.76771311  0.83242430     0.01100
H1878       H  0.99654563  0.58438840  0.89803697     0.04700
H1879       H  0.02297487  0.63223452  0.91819250     0.06700
H1880       H  0.06441482  0.63031274  0.90150526     0.07500
C1881       C  0.21124699  0.55387561  0.86532094    -0.22100
C1882       C  0.16598540  0.55046344  0.86092047     0.09900
C1883       C  0.13226348  0.53866009  0.87660153     0.10300
C1884       C  0.14468231  0.52920951  0.89560551    -0.17000
C1885       C  0.19021423  0.53348278  0.89952540    -0.27400
C1886       C  0.22559363  0.55022037  0.88481173     0.18600
C1887       C  0.15782479  0.56133659  0.83997170     0.12600
C1888       C  0.08216690  0.53333175  0.87420060    -0.11800
H1889       H  0.12619542  0.02076752  0.90566902     0.12900
C1890       C  0.27860795  0.56494726  0.88990550    -0.22600
H1891       H  0.23724101  0.56287390  0.85361008     0.08500
C1892       C  0.14897311  0.59994323  0.83514771     0.04900
C1893       C  0.14294798  0.60879925  0.81521800    -0.19800
C1894       C  0.14761903  0.58204871  0.79978764    -0.12100
C1895       C  0.15836228  0.54500713  0.80413912     0.13600
C1896       C  0.16416153  0.53558487  0.82422438    -0.22600
C1897       C  0.14862215  0.63512627  0.85020952    -0.05600
H1898       H  0.13503746  0.63758214  0.81164027     0.15100
C1899       C  0.16390751  0.51605601  0.78766722    -0.15800
H1900       H  0.17306146  0.50746496  0.82765974     0.09400
H1901       H  0.29945189  0.60158790  0.89904481     0.07300
H1902       H  0.29900473  0.57075129  0.87618931     0.08500
H1903       H  0.27876694  0.53494942  0.89869594     0.07500
H1904       H  0.07255864  0.53784153  0.85867297     0.02400
H1905       H  0.08321916  0.56299005  0.88381101     0.02900
H1906       H  0.05800919  0.99733267  0.87851468     0.06400
H1907       H  0.17856607  0.67543335  0.84666315     0.05400
H1908       H  0.15694633  0.62875963  0.86557891    -0.00400
H1909       H  0.11134503  0.63028365  0.84938409     0.01100
H1910       H  0.17169493  0.48778732  0.79364274     0.04700
H1911       H  0.19577948  0.54405699  0.77839290     0.06700
H1912       H  0.12837280  0.49428820  0.77810886     0.07500
C1913       C  0.13819658  0.53130972  0.62692059    -0.22100
C1914       C  0.17191794  0.54625486  0.64370315     0.09900
C1915       C  0.21998290  0.55538181  0.64085790     0.10300
C1916       C  0.23369024  0.55078090  0.62163721    -0.17000
C1917       C  0.19918659  0.53346094  0.60508901    -0.27400
C1918       C  0.15138874  0.52541756  0.60774628     0.18600
C1919       C  0.15770207  0.55375581  0.66400201     0.12600
C1920       C  0.25600191  0.56699643  0.65829564    -0.11800
H1921       H  0.27006204  0.55651933  0.61982510     0.12900
C1922       C  0.11333680  0.51033450  0.59056968    -0.22600
H1923       H  0.10067456  0.52273929  0.62877625     0.08500
C1924       C  0.14666720  0.59120523  0.66771200     0.04900
C1925       C  0.13984150  0.60091757  0.68733393    -0.19800
C1926       C  0.14230707  0.57373154  0.70347460    -0.12100
C1927       C  0.15212865  0.53575490  0.70005824     0.13600
C1928       C  0.15992967  0.52644475  0.68045018    -0.22600
C1929       C  0.14351381  0.62279161  0.65145425    -0.05600
H1930       H  0.13266361  0.63044211  0.69018523     0.15100
C1931       C  0.15604543  0.50653070  0.71711712    -0.15800
H1932       H  0.16853943  0.49800973  0.67806233     0.09400
H1933       H  0.10505482  0.54043388  0.58900699     0.07300
H1934       H  0.07045958  0.96121019  0.59423700     0.08500
H1935       H  0.12727124  0.50693150  0.57617773     0.07500
H1936       H  0.24437387  0.53087075  0.66616488     0.02400
H1937       H  0.25711213  0.59495724  0.66886941     0.02900
H1938       H  0.29460187  0.58401161  0.65331637     0.06400
H1939       H  0.13563743  0.65062833  0.65748018     0.05400
H1940       H  0.11286728  0.59732944  0.64020176    -0.00400
H1941       H  0.17976098  0.64618701  0.64417701     0.01100
H1942       H  0.11938861  0.48396707  0.72456799     0.04700
H1943       H  0.18645399  0.53440871  0.72810888     0.06700
H1944       H  0.16540538  0.47909573  0.71196780     0.07500
C1945       C  0.08066150  0.68333486  0.62508855    -0.22100
C1946       C  0.06480793  0.70190012  0.64017842     0.09900
C1947       C  0.04988530  0.73579249  0.63450867     0.10300
C1948       C  0.04593354  0.74463404  0.61425047    -0.17000
C1949       C  0.05201340  0.71751072  0.59943084    -0.27400
C1950       C  0.07315701  0.68955385  0.60476979     0.18600
C1951       C  0.06492634  0.68631844  0.66140024     0.12600
C1952       C  0.03456176  0.76148806  0.64869229    -0.11800
H1953       H  0.03075823  0.76695669  0.60989226     0.12900
C1954       C  0.08536023  0.66423941  0.58904747    -0.22600
H1955       H  0.09608653  0.66111473  0.62908655     0.08500
C1956       C  0.04074928  0.63366046  0.66733555     0.04900
C1957       C  0.04081314  0.62285742  0.68758497    -0.19800
C1958       C  0.06338914  0.66244654  0.70221755    -0.12100
C1959       C  0.08425962  0.71381129  0.69670798     0.13600
C1960       C  0.08877855  0.72550953  0.67642283    -0.22600
C1961       C  0.01535686  0.58691575  0.65345127    -0.05600
H1962       H  0.02524346  0.58310285  0.69188313     0.15100
C1963       C  0.09826024  0.75548537  0.71213792    -0.15800
H1964       H  0.10869335  0.76544205  0.67223727     0.09400
H1965       H  0.09875181  0.64117089  0.59580932     0.07300
H1966       H  0.11551476  0.69466852  0.57975082     0.08500
H1967       H  0.05127604  0.63756570  0.57927197     0.07500
H1968       H  0.06258827  0.80364609  0.64828693     0.02400
H1969       H  0.03142624  0.74995883  0.66429985     0.02900
H1970       H  0.54955571  0.79022650  0.63902342     0.06400
H1971       H  0.97608825  0.55899513  0.65813800     0.05400
H1972       H  0.03526612  0.56707172  0.65482715    -0.00400
H1973       H  0.01398698  0.59580422  0.63768184     0.01100
H1974       H  0.13966161  0.78443192  0.71324651     0.04700
H1975       H  0.08588736  0.73955929  0.72718344     0.06700
H1976       H  0.07847799  0.77441941  0.70800935     0.07500
C1977       C  0.38770111  0.55365715  0.88111855    -0.22100
C1978       C  0.38644537  0.57897180  0.86392230     0.09900
C1979       C  0.39428935  0.62830578  0.86619906     0.10300
C1980       C  0.40725904  0.65244970  0.88504005    -0.17000
C1981       C  0.41471463  0.62957858  0.90141836    -0.27400
C1982       C  0.40135602  0.57831841  0.89991757     0.18600
C1983       C  0.37677513  0.55466255  0.84368895     0.12600
C1984       C  0.39172267  0.65733823  0.84886310    -0.11800
H1985       H  0.41634043  0.69154712  0.88673130     0.12900
C1986       C  0.40290513  0.55041123  0.91802218    -0.22600
H1987       H  0.38107651  0.51598653  0.88008221     0.08500
C1988       C  0.41112459  0.54634195  0.83466910     0.04900
C1989       C  0.40569937  0.53580748  0.81408630    -0.19800
C1990       C  0.36682410  0.53278578  0.80210228    -0.12100
C1991       C  0.32920630  0.53528845  0.81165799     0.13600
C1992       C  0.33437989  0.54507260  0.83231154    -0.22600
C1993       C  0.45400567  0.54807124  0.84587220    -0.05600
H1994       H  0.43286127  0.53047092  0.80736795     0.15100
C1995       C  0.28354309  0.52828323  0.80057931    -0.15800
H1996       H  0.30603336  0.54747705  0.83961133     0.09400
H1997       H  0.39183796  0.51050025  0.91413238     0.07300
H1998       H  0.37599646  0.54719559  0.92889023     0.08500
H1999       H  0.44159756  0.57211593  0.92524840     0.07500
H2000       H  0.35288099  0.63657099  0.84193198     0.02400
H2001       H  0.41838496  0.66231216  0.83770470     0.02900
H2002       H  0.90473271  0.70665225  0.85391054     0.06400
H2003       H  0.49044654  0.57655237  0.83911208     0.05400
H2004       H  0.44839358  0.50963523  0.84462128    -0.00400
H2005       H  0.45731584  0.55798333  0.86187346     0.01100
H2006       H  0.25926799  0.48844158  0.79384524     0.04700
H2007       H  0.29594125  0.55780436  0.78885935     0.06700
H2008       H  0.25963074  0.53318844  0.81063963     0.07500
C2009       C  0.25479373  0.79340890  0.85760721    -0.22100
C2010       C  0.28935344  0.84299507  0.85045747     0.09900
C2011       C  0.31309869  0.88499550  0.86439363     0.10300
C2012       C  0.30971616  0.87557041  0.88503727    -0.17000
C2013       C  0.27910278  0.82473447  0.89192260    -0.27400
C2014       C  0.24737984  0.78410521  0.87805700     0.18600
C2015       C  0.29728713  0.84986274  0.82840840     0.12600
C2016       C  0.34179256  0.93981091  0.85781449    -0.11800
H2017       H  0.33272759  0.90758888  0.89565878     0.12900
C2018       C  0.20787142  0.73024717  0.88481226    -0.22600
H2019       H  0.23404680  0.76194491  0.84704106     0.08500
C2020       C  0.34549091  0.87322328  0.82004527     0.04900
C2021       C  0.35002129  0.88133755  0.79947430    -0.19800
C2022       C  0.30835823  0.86911946  0.78683181    -0.12100
C2023       C  0.25954548  0.84117022  0.79473529     0.13600
C2024       C  0.25493036  0.83209450  0.81529255    -0.22600
C2025       C  0.39379631  0.89230131  0.83206289    -0.05600
H2026       H  0.38767801  0.90187689  0.79367053     0.15100
C2027       C  0.21203284  0.82128928  0.78178698    -0.15800
H2028       H  0.21798552  0.81241757  0.82119070     0.09400
H2029       H  0.21757042  0.70318262  0.87994060     0.07300
H2030       H  0.16985286  0.71744753  0.87845600     0.08500
H2031       H  0.20510231  0.72794257  0.90124030     0.07500
H2032       H  0.34173045  0.94352287  0.84142126     0.02400
H2033       H  0.38160141  0.95990532  0.86374076     0.02900
H2034       H  0.32296682  0.95791006  0.86346569     0.06400
H2035       H  0.42197859  0.93393305  0.82916499     0.05400
H2036       H  0.40965633  0.87027518  0.82730746    -0.00400
H2037       H  0.38838529  0.88865186  0.84821334     0.01100
H2038       H  0.17751905  0.79450346  0.78993632     0.04700
H2039       H  0.21163979  0.79952173  0.76860334     0.06700
H2040       H  0.20926573  0.85375025  0.77698582     0.07500
C2041       C  0.43019606  0.59120961  0.63106515    -0.22100
C2042       C  0.42799606  0.62624828  0.64326092     0.09900
C2043       C  0.43480036  0.67116086  0.63452800     0.10300
C2044       C  0.44506254  0.67993869  0.61418065    -0.17000
C2045       C  0.44943017  0.64538010  0.60249239    -0.27400
C2046       C  0.43997993  0.59950128  0.61089380     0.18600
C2047       C  0.41571574  0.61202541  0.66454416     0.12600
C2048       C  0.43102369  0.71024000  0.64588031    -0.11800
H2049       H  0.45220509  0.71525848  0.60763975     0.12900
C2050       C  0.44008489  0.55847053  0.59908854    -0.22600
H2051       H  0.42493356  0.55705247  0.63751398     0.08500
C2052       C  0.37054120  0.56454751  0.66921093     0.04900
C2053       C  0.36080446  0.55040411  0.68908631    -0.19800
C2054       C  0.39568869  0.58094444  0.70475349    -0.12100
C2055       C  0.44105916  0.62839459  0.70036681     0.13600
C2056       C  0.45054381  0.64355771  0.68026641    -0.22600
C2057       C  0.33291062  0.52677544  0.65339173    -0.05600
H2058       H  0.32635557  0.51336023  0.69230697     0.15100
C2059       C  0.47731971  0.66430918  0.71686611    -0.15800
H2060       H  0.48539635  0.67967169  0.67683627     0.09400
H2061       H  0.40209530  0.52153222  0.59960406     0.07300
H2062       H  0.98581694  0.57189946  0.60288879     0.08500
H2063       H  0.95945287  0.58106697  0.58030253     0.07500
H2064       H  0.46727092  0.74888238  0.64597161     0.02400
H2065       H  0.42126074  0.69955499  0.66152846     0.02900
H2066       H  0.40185636  0.71392135  0.63818760     0.06400
H2067       H  0.29533544  0.49931090  0.65964693     0.05400
H2068       H  0.34611211  0.50375912  0.64729331    -0.00400
H2069       H  0.32837583  0.54701252  0.64078608     0.01100
H2070       H  0.49283952  0.64539488  0.72547247     0.04700
H2071       H  0.45716003  0.67412347  0.72706481     0.06700
H2072       H  0.50919699  0.70118705  0.71089268     0.07500
C2073       C  0.26226113  0.87613519  0.66278031    -0.22100
C2074       C  0.30083803  0.89199757  0.64952662     0.09900
C2075       C  0.35228891  0.92288509  0.65750151     0.10300
C2076       C  0.36179108  0.93390282  0.67824280    -0.17000
C2077       C  0.32188385  0.91113106  0.69133158    -0.27400
C2078       C  0.27183890  0.87863691  0.68332885     0.18600
C2079       C  0.28572227  0.86855041  0.62865140     0.12600
C2080       C  0.39755192  0.94101632  0.64504239    -0.11800
H2081       H  0.40050953  0.95945397  0.68425640     0.12900
C2082       C  0.22923610  0.84104900  0.69613509    -0.22600
H2083       H  0.22361358  0.85732077  0.65714866     0.08500
C2084       C  0.24549458  0.81506080  0.62441606     0.04900
C2085       C  0.23912996  0.79444847  0.60522973    -0.19800
C2086       C  0.27303997  0.82304995  0.59051230    -0.12100
C2087       C  0.30921071  0.87677985  0.59375693     0.13600
C2088       C  0.31372068  0.89912937  0.61256092    -0.22600
C2089       C  0.20960862  0.77685344  0.63945881    -0.05600
H2090       H  0.20883025  0.75424490  0.60190769     0.15100
C2091       C  0.34424506  0.91021010  0.57778205    -0.15800
H2092       H  0.33956180  0.94072448  0.61465370     0.09400
H2093       H  0.19592690  0.81072723  0.68680797     0.07300
H2094       H  0.21760594  0.86142353  0.70555441     0.08500
H2095       H  0.24138670  0.82055168  0.70580566     0.07500
H2096       H  0.40441319  0.97273116  0.63540851     0.02400
H2097       H  0.39156212  0.90856311  0.63567374     0.02900
H2098       H  0.43288960  0.95638348  0.65446079     0.06400
H2099       H  0.19012375  0.73596797  0.63395692     0.05400
H2100       H  0.17911081  0.78282953  0.64204476    -0.00400
H2101       H  0.22959696  0.77911122  0.65364065     0.01100
H2102       H  0.32223982  0.91225780  0.56503257     0.04700
H2103       H  0.36532366  0.89394702  0.57257995     0.06700
H2104       H  0.37245468  0.95048932  0.58338578     0.07500
O2105       O  0.82872108  0.27708184  0.98449113    -0.80500
O2106       O  0.81547722  0.10422303  0.03818541    -0.65200
O2107       O  0.85326905  0.21451865  0.00177280    -1.11800
C2108       C  0.77660867  0.05605814  0.96417484     1.06400
O2109       O  0.81726492  0.04684094  0.01699568    -0.78400
O2110       O  0.90915384  0.13839469  0.97681853    -0.66000
Ni2111     Ni  0.87320264  0.28113122  0.00667375     1.34900
C2112       C  0.92094542  0.18073029  0.96844657     0.85100
O2113       O  0.90719802  0.20498390  0.03022856    -0.78900
O2114       O  0.92216382  0.28574141  0.02800270    -0.89200
C2115       C  0.80799123  0.05871733  0.03384251     0.84700
O2116       O  0.82000339  0.26419681  0.02483378    -0.67400
O2117       O  0.80348655  0.04660980  0.97610293    -0.86700
C2118       C  0.80585123  0.23466701  0.03976386     0.85500
C2119       C  0.93614302  0.25505983  0.03381870     1.07100
H2120       H  0.79448714  0.09871567  0.00015493     0.38900
O2121       O  0.82980908  0.12692876  0.99956593    -1.09400
O2122       O  0.89079552  0.19575910  0.96900015    -0.66000
Ni2123     Ni  0.82352611  0.16568514  0.98059052     1.26300
O2124       O  0.82055999  0.20303137  0.04227283    -0.66200
O2125       O  0.78734752  0.10349237  0.96237357    -0.78500
C2126       C  0.81295313  0.25136947  0.96766621     0.84900
O2127       O  0.81281162  0.21020370  0.96391585    -0.65700
Ni2128     Ni  0.85989577  0.09164221  0.99627157     1.27400
Ni2129     Ni  0.83389201  0.16544366  0.02182742     1.26100
H2130       H  0.88747505  0.22532915  0.99951352     0.39500
O2131       O  0.78322226  0.04466528  0.48175874    -0.80500
O2132       O  0.77316210  0.18194603  0.51897601    -0.65200
O2133       O  0.81110840  0.12763310  0.50216705    -1.11800
C2134       C  0.93505086  0.27748298  0.46901175     1.06400
O2135       O  0.82113792  0.26954821  0.51800952    -0.78400
O2136       O  0.82631327  0.26816754  0.47874905    -0.66000
Ni2137     Ni  0.83391297  0.08224202  0.50242780     1.34900
C2138       C  0.79035247  0.22342004  0.47229942     0.85100
O2139       O  0.78595681  0.10896050  0.54031700    -0.78900
O2140       O  0.78805142  0.04557726  0.52391542    -0.89200
C2141       C  0.78009921  0.22669216  0.52271573     0.84700
O2142       O  0.89453235  0.11853538  0.52019490    -0.67400
O2143       O  0.93116910  0.30473718  0.48243067    -0.86700
C2144       C  0.91493863  0.15968400  0.53077670     0.85500
C2145       C  0.77174225  0.06029709  0.53787612     1.07100
H2146       H  0.90454787  0.23543041  0.50794301     0.38900
O2147       O  0.86980694  0.22348407  0.50473129    -1.09400
O2148       O  0.79323463  0.18356833  0.47437920    -0.66000
Ni2149     Ni  0.84903504  0.17533383  0.48298592     1.26300
O2150       O  0.89070673  0.17993580  0.53371205    -0.66200
O2151       O  0.89897609  0.22883517  0.46538817    -0.78500
C2152       C  0.79533598  0.06488300  0.46461025     0.84900
O2153       O  0.82297832  0.11606023  0.46289358    -0.65700
Ni2154     Ni  0.87556279  0.28641443  0.50031258     1.27400
Ni2155     Ni  0.82903947  0.17299611  0.52445018     1.26100
H2156       H  0.77506048  0.10929914  0.49880160     0.39500
O2157       O  0.82412832  0.00709764  0.76906707    -0.74000
O2158       O  0.79471100  0.42772879  0.72193034    -0.74100
O2159       O  0.78815399  0.41205982  0.76206324    -0.74100
O2160       O  0.83424641  0.02881324  0.72892262    -0.74200
O2161       O  0.91367173  0.04996101  0.73167709    -0.74100
O2162       O  0.86643564  0.43054737  0.76285949    -0.74100
O2163       O  0.87461447  0.45059598  0.72244116    -0.74100
O2164       O  0.90139196  0.02337212  0.77201269    -0.74100
Ni2165     Ni  0.80536974  0.46832017  0.74489787     1.25400
Ni2166     Ni  0.89012962  0.49041792  0.74681079     1.25400
C2167       C  0.86473816  0.02279563  0.77958930     0.88100
C2168       C  0.83053815  0.42866471  0.71365374     0.88100
C2169       C  0.82148646  0.40499787  0.76935032     0.88100
C2170       C  0.87975005  0.05454320  0.72307341     0.88300
O2171       O  0.59241730  0.05574227  0.73085401    -0.74000
O2172       O  0.55046504  0.11205925  0.77027624    -0.74100
O2173       O  0.54983692  0.10884031  0.72954228    -0.74100
O2174       O  0.59283196  0.05797791  0.77168869    -0.74200
O2175       O  0.66986980  0.13263654  0.77268296    -0.74100
O2176       O  0.62652919  0.18358795  0.73090170    -0.74100
O2177       O  0.62750624  0.18613528  0.77142119    -0.74100
O2178       O  0.66897700  0.13079509  0.73175248    -0.74100
Ni2179     Ni  0.56864088  0.08089805  0.75060743     1.25400
Ni2180     Ni  0.65100771  0.16082631  0.75175410     1.25400
C2181       C  0.63636430  0.08586174  0.72379606     0.88100
C2182       C  0.58257869  0.15781260  0.77779398     0.88100
C2183       C  0.58219557  0.15352398  0.72261336     0.88100
C2184       C  0.63727875  0.08837200  0.77983634     0.88300
O2185       O  0.51050836  0.38555240  0.76531581    -0.74000
O2186       O  0.89865354  0.30823957  0.72646177    -0.74100
O2187       O  0.90973203  0.31385276  0.76739221    -0.74100
O2188       O  0.49902368  0.38213219  0.72435360    -0.74200
O2189       O  0.51369729  0.32010213  0.72377898    -0.74100
O2190       O  0.92144603  0.24969183  0.76604324    -0.74100
O2191       O  0.91276568  0.24608264  0.72487226    -0.74100
O2192       O  0.52301446  0.32210075  0.76448216    -0.74100
Ni2193     Ni  0.95311941  0.34900191  0.74578604     1.25400
Ni2194     Ni  0.96728606  0.28152673  0.74491534     1.25400
C2195       C  0.53209597  0.36403556  0.77251978     0.88100
C2196       C  0.89050156  0.26706495  0.71796869     0.88100
C2197       C  0.90527042  0.27368572  0.77490935     0.88100
C2198       C  0.51985667  0.36140602  0.71659785     0.88300
C2199       C  0.51674954  0.19139731  0.54547162     0.02700
C2200       C  0.95897945  0.17574296  0.54536151     0.02600
C2201       C  0.93978528  0.15874826  0.56446803    -0.17900
C2202       C  0.97089847  0.17357816  0.58167882     0.02700
C2203       C  0.52253752  0.18968575  0.58201126     0.02600
C2204       C  0.54497820  0.20391416  0.56381257    -0.17900
H2205       H  0.58621701  0.22702986  0.56420536     0.04700
H2206       H  0.89902971  0.13346090  0.56619720     0.04700
C2207       C  0.71001818  0.46281636  0.55151750     0.02700
C2208       C  0.73646552  0.01928356  0.55276807     0.02600
C2209       C  0.72977395  0.03964621  0.57049388    -0.17900
C2210       C  0.70249282  0.00802519  0.58640660     0.02700
C2211       C  0.68204571  0.45727265  0.58556783     0.02600
C2212       C  0.68569157  0.43429788  0.56858617    -0.17900
H2213       H  0.66710481  0.39250643  0.56871365     0.04700
H2214       H  0.74629077  0.08088944  0.57217544     0.04700
C2215       C  0.77024589  0.29440054  0.94863195     0.02700
C2216       C  0.80146244  0.27384311  0.95003779     0.02600
C2217       C  0.82508310  0.27325341  0.93281269    -0.17900
C2218       C  0.81898098  0.29043570  0.91451606     0.02700
C2219       C  0.78814572  0.30955375  0.91268551     0.02600
C2220       C  0.76431685  0.31138768  0.92960279    -0.17900
H2221       H  0.74083523  0.32631295  0.92780751     0.04700
H2222       H  0.84902493  0.25864909  0.93346464     0.04700
C2223       C  0.75036886  0.23156751  0.53864963     0.02700
C2224       C  0.73401512  0.26735165  0.53871078     0.02600
C2225       C  0.74226054  0.29516981  0.55660611    -0.17900
C2226       C  0.76189319  0.28728346  0.57419396     0.02700
C2227       C  0.77145319  0.24814633  0.57485334     0.02600
C2228       C  0.76395483  0.21991629  0.55729664    -0.17900
H2229       H  0.77564117  0.19318852  0.55782716     0.04700
H2230       H  0.72948662  0.32086834  0.55745397     0.04700
C2231       C  0.70262748  0.45376069  0.95099190     0.02700
C2232       C  0.73334127  0.01242166  0.95008712     0.02600
C2233       C  0.72385360  0.03351012  0.93324208    -0.17900
C2234       C  0.69556586  0.00381333  0.91639797     0.02700
C2235       C  0.67319541  0.45199412  0.91617627     0.02600
C2236       C  0.67948034  0.42737296  0.93232199    -0.17900
H2237       H  0.66252540  0.38590417  0.93069466     0.04700
H2238       H  0.74066375  0.07489825  0.93236085     0.04700
C2239       C  0.51146579  0.23528032  0.94914982     0.02700
C2240       C  0.95760045  0.19966264  0.95141498     0.02600
C2241       C  0.92774909  0.16845564  0.93468889    -0.17900
C2242       C  0.94813434  0.16921318  0.91685916     0.02700
C2243       C  0.49925087  0.20416259  0.91432192     0.02600
C2244       C  0.53023694  0.23605590  0.93026898    -0.17900
H2245       H  0.57039234  0.26182566  0.92761683     0.04700
H2246       H  0.88684454  0.14087142  0.93549032     0.04700
O2247       O  0.66101027  0.22077179  0.47817913    -0.80500
O2248       O  0.66744110  0.37665415  0.53441726    -0.65200
O2249       O  0.61497705  0.26916634  0.49226430    -1.11800
C2250       C  0.71371027  0.43251104  0.45919336     1.06400
O2251       O  0.70837177  0.44846161  0.51592317    -0.78400
O2252       O  0.59572820  0.38103475  0.47798076    -0.66000
Ni2253     Ni  0.60798629  0.20535777  0.49631640     1.34900
C2254       C  0.57131656  0.33955797  0.46748708     0.85100
O2255       O  0.59028026  0.26501648  0.53177481    -0.78900
O2256       O  0.55401884  0.18811940  0.51487977    -0.89200
C2257       C  0.69665841  0.42781353  0.53298354     0.84700
O2258       O  0.65773085  0.22227287  0.51760328    -0.67400
O2259       O  0.70143516  0.44915954  0.47393228    -0.86700
C2260       C  0.69429844  0.26614894  0.52458797     0.85500
C2261       C  0.55341063  0.21643406  0.52878167     1.07100
H2262       H  0.71206199  0.38195954  0.49740298     0.38900
O2263       O  0.67591259  0.36505866  0.49466950    -1.09400
O2264       O  0.59129993  0.31471249  0.46443323    -0.66000
Ni2265     Ni  0.65360769  0.31917687  0.47218432     1.26300
O2266       O  0.69382183  0.30741509  0.52234973    -0.66200
O2267       O  0.69597582  0.38293790  0.45624554    -0.78500
C2268       C  0.70205514  0.26292565  0.47305696     0.84900
O2269       O  0.70926382  0.30827389  0.47591212    -0.65700
Ni2270     Ni  0.65632902  0.41323938  0.49556754     1.27400
Ni2271     Ni  0.63893832  0.31766719  0.51407674     1.26100
H2272       H  0.58020879  0.25800119  0.48966067     0.39500
O2273       O  0.55338863  0.31186016  0.01763423    -0.80500
O2274       O  0.70490821  0.30217118  0.96204110    -0.65200
O2275       O  0.62609627  0.31805763  0.99890393    -1.11800
C2276       C  0.75346917  0.42376400  0.03241470     1.06400
O2277       O  0.77113405  0.31750154  0.98286103    -0.78400
O2278       O  0.76242591  0.30676406  0.02356710    -0.66000
Ni2279     Ni  0.59724022  0.35524473  0.99654486     1.34900
C2280       C  0.73460742  0.29134213  0.03859121     0.85100
O2281       O  0.59997611  0.27972187  0.96152793    -0.78900
O2282       O  0.54988685  0.30106787  0.97630924    -0.89200
C2283       C  0.74639654  0.30373843  0.96576463     0.84700
O2284       O  0.64238941  0.40514703  0.97656410    -0.67400
O2285       O  0.78298145  0.41010680  0.02639361    -0.86700
C2286       C  0.68097169  0.41381704  0.96746316     0.85500
C2287       C  0.55571148  0.27329679  0.96375756     1.07100
H2288       H  0.72119269  0.37417801  0.99848509     0.38900
O2289       O  0.71069819  0.33903163  0.00069029    -1.09400
O2290       O  0.70346941  0.30568640  0.04118801    -0.66000
Ni2291     Ni  0.66489634  0.31997475  0.02099965     1.26300
O2292       O  0.69284187  0.38087498  0.96795967    -0.66200
O2293       O  0.70452582  0.39462162  0.02887767    -0.78500
C2294       C  0.56395468  0.29811127  0.03421872     0.84900
O2295       O  0.60727032  0.30223048  0.03807678    -0.65700
Ni2296     Ni  0.77664447  0.36140790  0.00507633     1.27400
Ni2297     Ni  0.66207467  0.31176096  0.97944947     1.26100
H2298       H  0.59713169  0.28245428  0.99957510     0.39500
O2299       O  0.97245818  0.19876750  0.23190077    -0.74000
O2300       O  0.57221255  0.23074362  0.27165442    -0.74100
O2301       O  0.56138974  0.22240192  0.22997795    -0.74100
O2302       O  0.98102246  0.20404315  0.27347186    -0.74200
O2303       O  0.95188153  0.12017341  0.27267040    -0.74100
O2304       O  0.53560989  0.13972435  0.23271775    -0.74100
O2305       O  0.54079842  0.14678618  0.27434811    -0.74100
O2306       O  0.94706035  0.11576401  0.23213523    -0.74100
Ni2307     Ni  0.52094031  0.21734020  0.25208151     1.25400
Ni2308     Ni  0.49026856  0.12776907  0.25302348     1.25400
C2309       C  0.94451144  0.15232285  0.22467132     0.88100
C2310       C  0.56779364  0.19354353  0.28167236     0.88100
C2311       C  0.55932589  0.18232696  0.22335879     0.88100
C2312       C  0.95570117  0.15880350  0.28120727     0.88300
O2313       O  0.96977621  0.42399293  0.27382452    -0.74000
O2314       O  0.89808114  0.44538837  0.23316226    -0.74100
O2315       O  0.89498186  0.43700208  0.27328612    -0.74100
O2316       O  0.97395426  0.43440091  0.23286523    -0.74200
O2317       O  0.91629519  0.34908132  0.22839020    -0.74100
O2318       O  0.84002028  0.35108168  0.27030289    -0.74100
O2319       O  0.84049377  0.36005583  0.22991677    -0.74100
O2320       O  0.91584840  0.33907631  0.26898212    -0.74100
Ni2321     Ni  0.93648626  0.43836812  0.25340511     1.25400
Ni2322     Ni  0.87621825  0.34653338  0.24925867     1.25400
C2323       C  0.94510567  0.37815085  0.28069276     0.88100
C2324       C  0.85992726  0.40622270  0.22383520     0.88100
C2325       C  0.85691873  0.39428914  0.27952181     0.88100
C2326       C  0.95449529  0.39233570  0.22252737     0.88300
C2327       C  0.78518090  0.02963042  0.44652138     0.02700
C2328       C  0.74978907  0.47219351  0.44424533     0.02600
C2329       C  0.75041552  0.44933760  0.42605554    -0.17900
C2330       C  0.78484889  0.47766607  0.41127920     0.02700
C2331       C  0.82136478  0.03289670  0.41417587     0.02600
C2332       C  0.81770144  0.05717783  0.43086554    -0.17900
H2333       H  0.84316465  0.09921732  0.43181593     0.04700
H2334       H  0.72317908  0.40811223  0.42309891     0.04700
O2335       O  0.61644014  0.46499665  0.22976242    -0.74000
O2336       O  0.66075495  0.05704663  0.27481114    -0.74100
O2337       O  0.66764719  0.07040279  0.23464917    -0.74100
O2338       O  0.61196299  0.45487147  0.27030257    -0.74200
O2339       O  0.68787282  0.46684374  0.27260195    -0.74100
O2340       O  0.74184359  0.07949884  0.23558691    -0.74100
O2341       O  0.73688311  0.07009936  0.27614760    -0.74100
O2342       O  0.69061704  0.47328429  0.23164944    -0.74100
Ni2343     Ni  0.63848056  0.01234301  0.25180110     1.25400
Ni2344     Ni  0.71894618  0.02375456  0.25393638     1.25400
C2345       C  0.64744994  0.45573048  0.22276240     0.88100
C2346       C  0.70378892  0.07487134  0.28394723     0.88100
C2347       C  0.71232692  0.09195106  0.22835754     0.88100
C2348       C  0.64286027  0.44588944  0.27874061     0.88300
C2349       C  0.77392995  0.46384832  0.04939980     0.02700
C2350       C  0.79455103  0.02053967  0.05023814     0.02600
C2351       C  0.81020190  0.04559382  0.06921961    -0.17900
C2352       C  0.81253577  0.02123197  0.08604196     0.02700
C2353       C  0.79177761  0.46765403  0.08528439     0.02600
C2354       C  0.77444609  0.44035544  0.06721601    -0.17900
H2355       H  0.76207559  0.39986535  0.06713673     0.04700
H2356       H  0.82379692  0.08612298  0.07119958     0.04700
C2357       C  0.74761914  0.21883054  0.45912645     0.02700
C2358       C  0.73271665  0.25597739  0.45800974     0.02600
C2359       C  0.71865607  0.26447699  0.43888882    -0.17900
C2360       C  0.70958944  0.23255204  0.42233953     0.02700
C2361       C  0.71916305  0.19378812  0.42412476     0.02600
C2362       C  0.73636172  0.18640918  0.44231053    -0.17900
H2363       H  0.74671536  0.15861546  0.44243950     0.04700
H2364       H  0.70681985  0.29096700  0.43733012     0.04700
C2365       C  0.77295775  0.23784533  0.05546772     0.02700
C2366       C  0.73927697  0.25722455  0.05428712     0.02600
C2367       C  0.70596251  0.24395191  0.07026390    -0.17900
C2368       C  0.70843947  0.22080105  0.08783893     0.02700
C2369       C  0.74561078  0.20995391  0.08987437     0.02600
C2370       C  0.77542594  0.21683639  0.07389713    -0.17900
H2371       H  0.80231023  0.20627245  0.07633731     0.04700
H2372       H  0.67769003  0.25287528  0.06945961     0.04700
C2373       C  0.97460114  0.30547548  0.45331650     0.02700
C2374       C  0.52987300  0.33099293  0.45261901     0.02600
C2375       C  0.55311377  0.35331546  0.43459230    -0.17900
C2376       C  0.52604144  0.34912261  0.41716580     0.02700
C2377       C  0.97573146  0.32783433  0.41791824     0.02600
C2378       C  0.95058458  0.30754345  0.43553363    -0.17900
H2379       H  0.91020041  0.29131111  0.43509596     0.04700
H2380       H  0.59402998  0.37381154  0.43377042     0.04700
C2381       C  0.52713747  0.28317108  0.05089121     0.02700
C2382       C  0.97901829  0.27608005  0.05004604     0.02600
C2383       C  0.96334379  0.28534229  0.06797165    -0.17900
C2384       C  0.99214401  0.29895687  0.08589610     0.02700
C2385       C  0.53574036  0.30314056  0.08693424     0.02600
C2386       C  0.55089039  0.29009161  0.07007124    -0.17900
H2387       H  0.58576986  0.29186423  0.07181857     0.04700
H2388       H  0.92802509  0.28293805  0.06801145     0.07100
C2389       C  0.57045682  0.35782705  0.32160059    -0.22100
C2390       C  0.60188060  0.39021447  0.33777804     0.09900
C2391       C  0.64756086  0.43773628  0.33416128     0.10300
C2392       C  0.66205748  0.45106386  0.31453998    -0.17000
C2393       C  0.63002990  0.42039235  0.29822886    -0.27400
C2394       C  0.58301739  0.37352245  0.30178167     0.18600
C2395       C  0.58324231  0.37946224  0.35824962     0.12600
C2396       C  0.67942406  0.47548202  0.35114152    -0.11800
H2397       H  0.69656723  0.48809027  0.31191122     0.12900
C2398       C  0.54571530  0.34089838  0.28485756    -0.22600
H2399       H  0.53463143  0.32202174  0.32444840     0.08500
C2400       C  0.56301662  0.40566521  0.36605097     0.04900
C2401       C  0.55039754  0.40010563  0.38603252    -0.19800
C2402       C  0.55273682  0.36446550  0.39798052    -0.12100
C2403       C  0.57441097  0.33890966  0.39027736     0.13600
C2404       C  0.59060067  0.34787292  0.37059858    -0.22600
C2405       C  0.55135108  0.43634266  0.35262385    -0.05600
H2406       H  0.03765047  0.42019910  0.39314839     0.15100
C2407       C  0.57884214  0.30060978  0.40228046    -0.15800
H2408       H  0.60805073  0.32941529  0.36467886     0.09400
H2409       H  0.53303344  0.36324064  0.27688068     0.07300
H2410       H  0.51144979  0.30498724  0.29031513     0.08500
H2411       H  0.56372013  0.32943514  0.27421565     0.07500
H2412       H  0.68924955  0.45566200  0.36213846     0.02400
H2413       H  0.65877569  0.48895821  0.35889704     0.02900
H2414       H  0.71410140  0.51085243  0.34600235     0.06400
H2415       H  0.03461920  0.45373411  0.36238248     0.05400
H2416       H  0.52452821  0.40945722  0.34075484    -0.00400
H2417       H  0.58502480  0.46700978  0.34503796     0.01100
H2418       H  0.59407062  0.28291094  0.39335445     0.04700
H2419       H  0.54093711  0.26888306  0.40717751     0.06700
H2420       H  0.60550191  0.32029141  0.41540490     0.07500
C2421       C  0.62797678  0.39115561  0.12871964    -0.22100
C2422       C  0.61243047  0.35677139  0.14472516     0.09900
C2423       C  0.58006722  0.30259562  0.14029805     0.10300
C2424       C  0.55680198  0.28545848  0.12098112    -0.17000
C2425       C  0.56855453  0.32083571  0.10566166    -0.27400
C2426       C  0.60776879  0.37381398  0.10922897     0.18600
C2427       C  0.62195503  0.37993528  0.16546811     0.12600
C2428       C  0.56919232  0.26262143  0.15562237    -0.11800
H2429       H  0.52839453  0.24445232  0.11792427     0.12900
C2430       C  0.62735686  0.41357060  0.09306742    -0.22600
H2431       H  0.65412015  0.43263784  0.13167916     0.08500
C2432       C  0.64641400  0.37192307  0.18182417     0.04900
C2433       C  0.65035457  0.39368996  0.20069447    -0.19800
C2434       C  0.63517787  0.42750889  0.20342687    -0.12100
C2435       C  0.61576560  0.43994014  0.18679477     0.13600
C2436       C  0.60781030  0.41477578  0.16839244    -0.22600
C2437       C  0.67352066  0.34567567  0.17993816    -0.05600
H2438       H  0.66841760  0.38673599  0.21315108     0.15100
C2439       C  0.60778379  0.48310291  0.18786153    -0.15800
H2440       H  0.59123101  0.42328762  0.15597098     0.09400
H2441       H  0.66813029  0.43014913  0.09126362     0.07300
H2442       H  0.62352869  0.44567027  0.09725979     0.08500
H2443       H  0.60720405  0.39707137  0.07837548     0.07500
H2444       H  0.55616721  0.26950026  0.16953847     0.02400
H2445       H  0.60340878  0.26382626  0.15941801     0.02900
H2446       H  0.54128497  0.22243723  0.14975720     0.06400
H2447       H  0.71285597  0.37090617  0.18653204     0.05400
H2448       H  0.67665985  0.33781221  0.16424212    -0.00400
H2449       H  0.65338312  0.30952846  0.18840385     0.01100
H2450       H  0.64426453  0.51954637  0.19260084     0.04700
H2451       H  0.57851908  0.47397802  0.19855899     0.06700
H2452       H  0.59551530  0.49000795  0.17325521     0.07500
C2453       C  0.74428591  0.10488291  0.33913079    -0.22100
C2454       C  0.70807094  0.11254655  0.34597714     0.09900
C2455       C  0.67464790  0.11324220  0.33175022     0.10300
C2456       C  0.67607679  0.10352498  0.31160531    -0.17000
C2457       C  0.71178694  0.09526325  0.30471767    -0.27400
C2458       C  0.74766011  0.09771749  0.31871913     0.18600
C2459       C  0.71076558  0.12609931  0.36756098     0.12600
C2460       C  0.63759981  0.12547291  0.33680848    -0.11800
H2461       H  0.64859271  0.10245443  0.30115613     0.12900
C2462       C  0.78945727  0.09265320  0.31260950    -0.22600
H2463       H  0.76978528  0.10402492  0.34997602     0.08500
C2464       C  0.66926114  0.09971331  0.38022173     0.04900
C2465       C  0.67350433  0.12084516  0.39924216    -0.19800
C2466       C  0.71898022  0.16615205  0.40622022    -0.12100
C2467       C  0.76220563  0.18852106  0.39468029     0.13600
C2468       C  0.75691257  0.16918950  0.37533877    -0.22600
C2469       C  0.61988251  0.05032768  0.37403902    -0.05600
H2470       H  0.64070007  0.10299642  0.40837574     0.15100
C2471       C  0.81365336  0.23482582  0.40174787    -0.15800
H2472       H  0.78835144  0.18995108  0.36573143     0.09400
H2473       H  0.81231910  0.09454405  0.32576004     0.07300
H2474       H  0.81478655  0.12473678  0.30261645     0.08500
H2475       H  0.77402691  0.05465702  0.30508167     0.07500
H2476       H  0.64235241  0.13893129  0.35243347     0.02400
H2477       H  0.59855839  0.09047933  0.33373968     0.02900
H2478       H  0.64382350  0.15717908  0.32709983     0.06400
H2479       H  0.58837726  0.05569101  0.37474449     0.05400
H2480       H  0.61270932  0.01886505  0.38419025    -0.00400
H2481       H  0.62057170  0.03855427  0.35868614     0.01100
H2482       H  0.84159667  0.22425129  0.40182663     0.04700
H2483       H  0.81431393  0.24900887  0.41696338     0.06700
H2484       H  0.82584111  0.26714708  0.39136520     0.07500
C2485       C  0.70586867  0.14814532  0.17912717    -0.22100
C2486       C  0.75329466  0.16515606  0.17194062     0.09900
C2487       C  0.79136709  0.17114013  0.18547340     0.10300
C2488       C  0.77816654  0.15152165  0.20476793    -0.17000
C2489       C  0.72812831  0.12697117  0.21097166    -0.27400
C2490       C  0.69257926  0.12936610  0.19841393     0.18600
C2491       C  0.75965061  0.17324277  0.15005967     0.12600
C2492       C  0.84526085  0.19656529  0.17962417    -0.11800
H2493       H  0.80677743  0.15379093  0.21477751     0.12900
C2494       C  0.64001700  0.11091703  0.20457230    -0.22600
H2495       H  0.67807739  0.14742347  0.16910717     0.08500
C2496       C  0.72558831  0.13288694  0.13615467     0.04900
C2497       C  0.72472283  0.14485349  0.11604219    -0.19800
C2498       C  0.75678612  0.19572615  0.10954120    -0.12100
C2499       C  0.79536913  0.23410478  0.12269932     0.13600
C2500       C  0.79629716  0.22253279  0.14288356    -0.22600
C2501       C  0.68990057  0.07715837  0.14234507    -0.05600
H2502       H  0.69714347  0.11484974  0.10547984     0.15100
C2503       C  0.83448839  0.28748888  0.11540439    -0.15800
H2504       H  0.82409004  0.25294768  0.15311166     0.09400
H2505       H  0.61677262  0.06864119  0.20722017     0.07300
H2506       H  0.61876697  0.11705415  0.19276670     0.08500
H2507       H  0.64283522  0.13270769  0.21821871     0.07500
H2508       H  0.86312102  0.23859783  0.17734902     0.02400
H2509       H  0.84615605  0.17790404  0.16574624     0.02900
H2510       H  0.86864493  0.19381473  0.19154607     0.06400
H2511       H  0.66826685  0.05085891  0.12927909     0.05400
H2512       H  0.66157032  0.07302365  0.15252042    -0.00400
H2513       H  0.71155852  0.06337470  0.15000713     0.01100
H2514       H  0.81603861  0.30690645  0.10996775     0.04700
H2515       H  0.85459640  0.28432921  0.10299321     0.06700
H2516       H  0.86345104  0.31237089  0.12728780     0.07500
C2517       C  0.94189424  0.40421107  0.33601235    -0.22100
C2518       C  0.90492346  0.35408505  0.34197469     0.09900
C2519       C  0.87562772  0.31499442  0.32730560     0.10300
C2520       C  0.89209651  0.32312524  0.30789181    -0.17000
C2521       C  0.93545883  0.37114088  0.30232149    -0.27400
C2522       C  0.95913591  0.41324801  0.31652123     0.18600
C2523       C  0.91282940  0.33955050  0.36209980     0.12600
C2524       C  0.82873004  0.26349001  0.33226673    -0.11800
H2525       H  0.87006421  0.29141764  0.29707263     0.12900
C2526       C  0.00383050  0.46714820  0.31190881    -0.22600
H2527       H  0.96143196  0.43516611  0.34722048     0.08500
C2528       C  0.93303510  0.30922082  0.36391534     0.04900
C2529       C  0.94627580  0.30036664  0.38281413    -0.19800
C2530       C  0.94635213  0.32641427  0.39976507    -0.12100
C2531       C  0.92631098  0.35710848  0.39810256     0.13600
C2532       C  0.90921498  0.36283447  0.37922491    -0.22600
C2533       C  0.94823827  0.29289400  0.34589218    -0.05600
H2534       H  0.45802095  0.27609007  0.38503823     0.15100
C2535       C  0.92523041  0.38591444  0.41587265    -0.15800
H2536       H  0.89557770  0.38767705  0.37765855     0.09400
H2537       H  0.03471854  0.46494298  0.30611636     0.07300
H2538       H  0.01951785  0.49320188  0.32539490     0.08500
H2539       H  0.99225664  0.48564924  0.30089143     0.07500
H2540       H  0.82067974  0.26305819  0.34817770     0.02400
H2541       H  0.83310368  0.23125297  0.32909127     0.02900
H2542       H  0.79574831  0.25684426  0.32309476     0.06400
H2543       H  0.47370567  0.28303701  0.35125299     0.05400
H2544       H  0.96673783  0.32449192  0.33508543    -0.00400
H2545       H  0.91503232  0.25805901  0.33828198     0.01100
H2546       H  0.91118854  0.41037272  0.41158681     0.04700
H2547       H  0.96405475  0.41178058  0.42285253     0.06700
H2548       H  0.89944010  0.35786432  0.42694215     0.07500
C2549       C  0.93985071  0.30006435  0.13523777    -0.22100
C2550       C  0.97372292  0.35300028  0.14105714     0.09900
C2551       C  0.00521033  0.38890315  0.12652478     0.10300
C2552       C  0.00628025  0.36999029  0.10778683    -0.17000
C2553       C  0.97794229  0.31669675  0.10324112    -0.27400
C2554       C  0.94126295  0.28162176  0.11631364     0.18600
C2555       C  0.97592248  0.36853744  0.16235733     0.12600
C2556       C  0.04022387  0.44698753  0.13002274    -0.11800
H2557       H  0.03193476  0.39694060  0.09697307     0.12900
C2558       C  0.40658289  0.23387040  0.11001875    -0.22600
H2559       H  0.91325426  0.27291508  0.14576202     0.08500
C2560       C  0.98482457  0.34441230  0.17835973     0.04900
C2561       C  0.98025742  0.35500503  0.19801613    -0.19800
C2562       C  0.97189781  0.39305291  0.20253554    -0.12100
C2563       C  0.96876794  0.42186961  0.18678073     0.13600
C2564       C  0.96728131  0.40670973  0.16694578    -0.22600
C2565       C  0.99859947  0.30664741  0.17550998    -0.05600
H2566       H  0.98309755  0.33310107  0.20998659     0.15100
C2567       C  0.96740225  0.46886616  0.18984893    -0.15800
H2568       H  0.95999730  0.42546609  0.15496083     0.09400
H2569       H  0.38635716  0.23028479  0.09561549     0.07300
H2570       H  0.37702458  0.21295327  0.12109390     0.08500
H2571       H  0.42709773  0.21482951  0.10839575     0.07500
H2572       H  0.04188886  0.45996341  0.14543557     0.02400
H2573       H  0.02776585  0.46660811  0.11999585     0.02900
H2574       H  0.07949797  0.46046821  0.12651671     0.06400
H2575       H  0.03144231  0.31690365  0.18569858     0.05400
H2576       H  0.00970371  0.30704919  0.16010738    -0.00400
H2577       H  0.96552856  0.26792154  0.17937554     0.01100
H2578       H  0.00167951  0.50303582  0.18352719     0.04700
H2579       H  0.96698537  0.47841488  0.20560421     0.06700
H2580       H  0.93365944  0.46293070  0.18166548     0.07500
C2581       C  0.79852536  0.39164331  0.37489259    -0.22100
C2582       C  0.79250165  0.40962416  0.35657414     0.09900
C2583       C  0.77908605  0.44557981  0.35620575     0.10300
C2584       C  0.77638275  0.46658620  0.37417951    -0.17000
C2585       C  0.78378647  0.45015719  0.39271417    -0.27400
C2586       C  0.79326872  0.41061516  0.39302577     0.18600
C2587       C  0.81031294  0.39998198  0.33811656     0.12600
C2588       C  0.76927001  0.46262211  0.33658674    -0.11800
H2589       H  0.76968172  0.49702755  0.37380910     0.12900
C2590       C  0.80108814  0.39048756  0.41229043    -0.22600
H2591       H  0.80932625  0.36430353  0.37501560     0.08500
C2592       C  0.85933472  0.43772399  0.33199820     0.04900
C2593       C  0.87129973  0.43663265  0.31234200    -0.19800
C2594       C  0.83756897  0.39520032  0.29908287    -0.12100
C2595       C  0.79011057  0.35439849  0.30588241     0.13600
C2596       C  0.77579941  0.35973831  0.32474618    -0.22600
C2597       C  0.89824621  0.48065453  0.34599553    -0.05600
H2598       H  0.90838859  0.46754218  0.30765554     0.15100
C2599       C  0.75466451  0.30535479  0.29363672    -0.15800
H2600       H  0.73758179  0.33267694  0.32904671     0.09400
H2601       H  0.81135833  0.36233338  0.40963213     0.07300
H2602       H  0.76565196  0.36987738  0.42045287     0.08500
H2603       H  0.83197388  0.42298822  0.42178581     0.07500
H2604       H  0.73177865  0.43094548  0.33000357     0.02400
H2605       H  0.79800133  0.47059338  0.32589627     0.02900
H2606       H  0.77142034  0.49906796  0.33827182     0.06400
H2607       H  0.93459455  0.50740746  0.33878785     0.05400
H2608       H  0.90581586  0.46403021  0.35918469    -0.00400
H2609       H  0.88324704  0.50307417  0.35088917     0.01100
H2610       H  0.71937849  0.27805689  0.30138336     0.04700
H2611       H  0.77305112  0.28445808  0.29117677     0.06700
H2612       H  0.74443324  0.31488033  0.27906654     0.07500
C2613       C  0.84512695  0.43231126  0.12777872    -0.22100
C2614       C  0.81699072  0.43345632  0.14303983     0.09900
C2615       C  0.77704323  0.43916343  0.13833019     0.10300
C2616       C  0.76314605  0.43897465  0.11845894    -0.17000
C2617       C  0.79342530  0.44207208  0.10333595    -0.27400
C2618       C  0.83437962  0.43746285  0.10787244     0.18600
C2619       C  0.82865079  0.42694329  0.16370953     0.12600
C2620       C  0.74968937  0.44835890  0.15357084    -0.11800
H2621       H  0.73277391  0.44404589  0.11488631     0.12900
C2622       C  0.86960817  0.44173084  0.09250239    -0.22600
H2623       H  0.87729420  0.43016681  0.13151310     0.08500
C2624       C  0.81835981  0.37904666  0.16999057     0.04900
C2625       C  0.82399005  0.37206276  0.19018265    -0.19800
C2626       C  0.84360444  0.41338078  0.20407462    -0.12100
C2627       C  0.85722355  0.46255466  0.19742881     0.13600
C2628       C  0.84827871  0.46836827  0.17739286    -0.22600
C2629       C  0.80360130  0.33602932  0.15534310    -0.05600
H2630       H  0.81643354  0.33503366  0.19483557     0.15100
C2631       C  0.88347906  0.50956392  0.21098039    -0.15800
H2632       H  0.85677442  0.50532436  0.17230629     0.09400
H2633       H  0.86938792  0.40590246  0.09244144     0.07300
H2634       H  0.90882099  0.47567923  0.09634722     0.08500
H2635       H  0.85893525  0.44671442  0.07720181     0.07500
H2636       H  0.75434225  0.48594252  0.15115209     0.02400
H2637       H  0.76112467  0.44776479  0.16922702     0.02900
H2638       H  0.70960068  0.41781286  0.15130257     0.06400
H2639       H  0.76783862  0.32402694  0.14697348     0.05400
H2640       H  0.79907497  0.30235081  0.16297677    -0.00400
H2641       H  0.83424770  0.34949616  0.14496271     0.01100
H2642       H  0.88952976  0.54332230  0.20307527     0.04700
H2643       H  0.92188221  0.52035578  0.21577161     0.06700
H2644       H  0.86066767  0.50169051  0.22417879     0.07500
C2645       C  0.89156631  0.09171479  0.32837272    -0.22100
C2646       C  0.92275970  0.12971227  0.34296357     0.09900
C2647       C  0.96328435  0.17886996  0.33705251     0.10300
C2648       C  0.96947755  0.18971943  0.31653838    -0.17000
C2649       C  0.93791705  0.15115789  0.30181209    -0.27400
C2650       C  0.89838384  0.10126897  0.30797290     0.18600
C2651       C  0.90840033  0.11681098  0.36403884     0.12600
C2652       C  0.00266714  0.21760705  0.35220732    -0.11800
H2653       H  0.00187774  0.22682730  0.31202658     0.12900
C2654       C  0.86317177  0.05761396  0.29317479    -0.22600
H2655       H  0.86127966  0.05425400  0.33312924     0.08500
C2656       C  0.87555768  0.12783850  0.37236256     0.04900
C2657       C  0.84902961  0.10143988  0.38919801    -0.19800
C2658       C  0.85700564  0.06633769  0.39869418    -0.12100
C2659       C  0.89589339  0.06155633  0.39222700     0.13600
C2660       C  0.91947940  0.08507722  0.37450324    -0.22600
C2661       C  0.86964129  0.16856258  0.36387153    -0.05600
H2662       H  0.82086665  0.10710351  0.39464108     0.15100
C2663       C  0.90816157  0.52820361  0.40293658    -0.15800
H2664       H  0.94510014  0.07678045  0.36856877     0.09400
H2665       H  0.82978970  0.02483078  0.30031798     0.07300
H2666       H  0.88295225  0.04158697  0.28642170     0.08500
H2667       H  0.84875416  0.07183090  0.28135771     0.07500
H2668       H  0.02209516  0.20128359  0.35943083     0.02400
H2669       H  0.98550589  0.22610087  0.36421378     0.02900
H2670       H  0.03171937  0.25431126  0.34516897     0.06400
H2671       H  0.84398291  0.17316516  0.37266149     0.05400
H2672       H  0.85636461  0.16038628  0.34801189    -0.00400
H2673       H  0.90677276  0.20553783  0.36505311     0.01100
H2674       H  0.89987150  0.49503285  0.39333063     0.04700
H2675       H  0.88863172  0.51324412  0.41708109     0.06700
H2676       H  0.94959918  0.55309437  0.40676959     0.07500
C2677       C  0.81606707  0.08054120  0.13609696    -0.22100
C2678       C  0.85792324  0.08453597  0.14576934     0.09900
C2679       C  0.88743937  0.07248406  0.13479252     0.10300
C2680       C  0.87499070  0.05816048  0.11462774    -0.17000
C2681       C  0.83096926  0.05025794  0.10547006    -0.27400
C2682       C  0.80095854  0.06132653  0.11632609     0.18600
C2683       C  0.87399492  0.10712053  0.16644821     0.12600
C2684       C  0.93218802  0.07381589  0.14377042    -0.11800
H2685       H  0.89778052  0.04923558  0.10632320     0.12900
C2686       C  0.75155716  0.05058459  0.10783032    -0.22600
H2687       H  0.79423228  0.09084829  0.14424260     0.08500
C2688       C  0.92089136  0.15479311  0.16974968     0.04900
C2689       C  0.94206531  0.17109648  0.18920399    -0.19800
C2690       C  0.91495037  0.14245554  0.20563345    -0.12100
C2691       C  0.86362664  0.10046027  0.20254458     0.13600
C2692       C  0.84380880  0.08203250  0.18283065    -0.22600
C2693       C  0.94639357  0.18904442  0.15248792    -0.05600
H2694       H  0.98075472  0.20482898  0.19150809     0.15100
C2695       C  0.83106911  0.07433593  0.22003506    -0.15800
H2696       H  0.80589923  0.04728559  0.18032020     0.09400
H2697       H  0.75545591  0.08792137  0.10639385     0.07300
H2698       H  0.72080384  0.02466993  0.11786788     0.08500
H2699       H  0.74000601  0.03122957  0.09291655     0.07500
H2700       H  0.93887060  0.08499077  0.15970976     0.02400
H2701       H  0.96690537  0.10206769  0.13584609     0.02900
H2702       H  0.92540291  0.03482039  0.14229690     0.06400
H2703       H  0.95678678  0.17128235  0.14120557     0.05400
H2704       H  0.98074019  0.22534478  0.15737928    -0.00400
H2705       H  0.92062720  0.19831620  0.14561262     0.01100
H2706       H  0.79184129  0.04216850  0.21513423     0.04700
H2707       H  0.82977475  0.10342770  0.22893054     0.06700
H2708       H  0.84735275  0.05871248  0.23012928     0.07500
C2709       C  0.63249636  0.25984336  0.33254069    -0.22100
C2710       C  0.61186499  0.21701121  0.34503578     0.09900
C2711       C  0.57160815  0.16786929  0.33708456     0.10300
C2712       C  0.56065741  0.16134297  0.31629707    -0.17000
C2713       C  0.58612111  0.20324992  0.30323037    -0.27400
C2714       C  0.62043805  0.25392205  0.31185962     0.18600
C2715       C  0.63739201  0.22428745  0.36529710     0.12600
C2716       C  0.54025367  0.12185379  0.35015536    -0.11800
H2717       H  0.53068630  0.12323127  0.31032314     0.12900
C2718       C  0.64445152  0.30232116  0.29965937    -0.22600
H2719       H  0.65935176  0.29820409  0.33909779     0.08500
C2720       C  0.68989826  0.24426838  0.36749554     0.04900
C2721       C  0.71320773  0.25310805  0.38655755    -0.19800
C2722       C  0.68494458  0.23583515  0.40359800    -0.12100
C2723       C  0.63226737  0.21399881  0.40165103     0.13600
C2724       C  0.60969284  0.21013483  0.38269599    -0.22600
C2725       C  0.72194976  0.25105129  0.35039227    -0.05600
H2726       H  0.75350052  0.26989316  0.38799341     0.15100
C2727       C  0.59817270  0.19255052  0.41904145    -0.15800
H2728       H  0.56977653  0.19436670  0.38177247     0.09400
H2729       H  0.67314678  0.33777093  0.30858172     0.07300
H2730       H  0.61493753  0.30807615  0.29402033     0.08500
H2731       H  0.66330632  0.29886849  0.28685204     0.07500
H2732       H  0.51782787  0.12949326  0.35968188     0.02400
H2733       H  0.56409678  0.11453171  0.36002262     0.02900
H2734       H  0.51331636  0.08581942  0.34121609     0.06400
H2735       H  0.75789356  0.29011291  0.35146206     0.05400
H2736       H  0.70311292  0.24475854  0.33551785    -0.00400
H2737       H  0.73185920  0.22234382  0.35156365     0.01100
H2738       H  0.58022206  0.21406996  0.42103070     0.04700
H2739       H  0.61836936  0.19529644  0.43329421     0.06700
H2740       H  0.56787414  0.15082596  0.41598584     0.07500
C2741       C  0.56530716  0.15100141  0.16891849    -0.22100
C2742       C  0.61631269  0.18736542  0.16479939     0.09900
C2743       C  0.64970982  0.21932051  0.18111016     0.10300
C2744       C  0.63055763  0.21883375  0.19979038    -0.17000
C2745       C  0.57960034  0.18265356  0.20359415    -0.27400
C2746       C  0.54794048  0.14562145  0.18829813     0.18600
C2747       C  0.63310749  0.19354977  0.14347669     0.12600
C2748       C  0.70607410  0.25216811  0.17975201    -0.11800
H2749       H  0.65615770  0.24523556  0.21172243     0.12900
C2750       C  0.49615515  0.09922731  0.19241179    -0.22600
H2751       H  0.53847133  0.12649873  0.15701267     0.08500
C2752       C  0.62075710  0.15114559  0.13063311     0.04900
C2753       C  0.64111811  0.16105011  0.11152284    -0.19800
C2754       C  0.67530214  0.21190884  0.10498654    -0.12100
C2755       C  0.68292725  0.25349366  0.11672824     0.13600
C2756       C  0.66234094  0.24387839  0.13568741    -0.22600
C2757       C  0.58872508  0.09533482  0.13699062    -0.05600
H2758       H  0.63249010  0.12871598  0.10198598     0.15100
C2759       C  0.71320739  0.30835460  0.10951572    -0.15800
H2760       H  0.67099029  0.27660120  0.14478484     0.09400
H2761       H  0.47834359  0.07211456  0.17937911     0.07300
H2762       H  0.47164339  0.11193763  0.19660738     0.08500
H2763       H  0.49929709  0.07698653  0.20458045     0.07500
H2764       H  0.71734027  0.24300099  0.16589162     0.02400
H2765       H  0.72412984  0.24414613  0.19238459     0.02900
H2766       H  0.72015716  0.29373272  0.18049549     0.06400
H2767       H  0.59554090  0.07035441  0.12782539     0.05400
H2768       H  0.54786739  0.07981796  0.13484859    -0.00400
H2769       H  0.59764281  0.09166565  0.15278781     0.01100
H2770       H  0.71565037  0.33566191  0.12081923     0.04700
H2771       H  0.69449644  0.31131389  0.09578233     0.06700
H2772       H  0.75224726  0.32065707  0.10639697     0.07500
C2773       C  0.91159947  0.27108485  0.83083808    -0.22100
C2774       C  0.86431819  0.25952064  0.83571419     0.09900
C2775       C  0.82676525  0.24362961  0.81989737     0.10300
C2776       C  0.84062090  0.24855156  0.79998741    -0.17000
C2777       C  0.88818672  0.26018862  0.79542481    -0.27400
C2778       C  0.92224872  0.26694133  0.81123106     0.18600
C2779       C  0.85723457  0.26542489  0.85729111     0.12600
C2780       C  0.77156294  0.21842036  0.82291445    -0.11800
H2781       H  0.81345862  0.24127511  0.78794578     0.12900
C2782       C  0.96989125  0.26933410  0.80842152    -0.22600
H2783       H  0.93958393  0.28056086  0.84270069     0.08500
C2784       C  0.82361632  0.22310932  0.86907129     0.04900
C2785       C  0.81617851  0.23187124  0.88872368    -0.19800
C2786       C  0.84041721  0.28241047  0.89669973    -0.12100
C2787       C  0.88003344  0.32398023  0.88628032     0.13600
C2788       C  0.88914128  0.31439762  0.86698410    -0.22600
C2789       C  0.79519382  0.16823264  0.86155817    -0.05600
H2790       H  0.78831298  0.19926069  0.89732250     0.15100
C2791       C  0.91298866  0.37834660  0.89515923    -0.15800
H2792       H  0.92074583  0.34570540  0.85932181     0.09400
H2793       H  0.96708612  0.23650047  0.81616608     0.07300
H2794       H  0.00237192  0.30604810  0.81514631     0.08500
H2795       H  0.97737723  0.26595277  0.79290411     0.07500
H2796       H  0.76316119  0.21225988  0.83870621     0.02400
H2797       H  0.74973409  0.17944786  0.81540864     0.02900
H2798       H  0.75859363  0.24180280  0.81621059     0.06400
H2799       H  0.75412798  0.15078141  0.86277840     0.05400
H2800       H  0.80737042  0.14757147  0.87087853    -0.00400
H2801       H  0.80193416  0.16410655  0.84586852     0.01100
H2802       H  0.95309599  0.39067962  0.89628655     0.04700
H2803       H  0.90222229  0.38128003  0.91035263     0.06700
H2804       H  0.91017910  0.40571800  0.88551703     0.07500
C2805       C  0.61075683  0.38057478  0.82019338    -0.22100
C2806       C  0.59356003  0.40182995  0.83364896     0.09900
C2807       C  0.56237024  0.41750137  0.82534572     0.10300
C2808       C  0.54668033  0.40791014  0.80510879    -0.17000
C2809       C  0.56087953  0.38333672  0.79219812    -0.27400
C2810       C  0.59459571  0.37063538  0.79982188     0.18600
C2811       C  0.61064212  0.40806373  0.85568234     0.12600
C2812       C  0.54521925  0.44572594  0.83681306    -0.11800
H2813       H  0.52114413  0.41830008  0.79956973     0.12900
C2814       C  0.61307773  0.34564094  0.78686335    -0.22600
H2815       H  0.63516975  0.36892513  0.82579507     0.08500
C2816       C  0.57790051  0.39380591  0.87193917     0.04900
C2817       C  0.59835611  0.40500237  0.89178253    -0.19800
C2818       C  0.64953696  0.42474018  0.89630328    -0.12100
C2819       C  0.67972613  0.42977021  0.88046568     0.13600
C2820       C  0.66110421  0.42425488  0.86057745    -0.22600
C2821       C  0.52122394  0.36596104  0.86934022    -0.05600
H2822       H  0.57425892  0.39925480  0.90386461     0.15100
C2823       C  0.73164443  0.93288084  0.88233736    -0.15800
H2824       H  0.68683068  0.43298624  0.84879677     0.09400
H2825       H  0.58124177  0.30567671  0.78217054     0.07300
H2826       H  0.64200464  0.34224693  0.79503561     0.08500
H2827       H  0.63061879  0.36951825  0.77355428     0.07500
H2828       H  0.56356208  0.45662331  0.85176750     0.02400
H2829       H  0.50330926  0.42103543  0.83783089     0.02900
H2830       H  0.55551676  0.48179948  0.82910875     0.06400
H2831       H  0.50196392  0.32998160  0.87809714     0.05400
H2832       H  0.50729843  0.35440076  0.85368503    -0.00400
H2833       H  0.51001975  0.39146929  0.87484539     0.01100
H2834       H  0.74414253  0.93821121  0.89833698     0.04700
H2835       H  0.76003685  0.96744983  0.87405658     0.06700
H2836       H  0.72981617  0.89853135  0.87641324     0.07500
C2837       C  0.56878935  0.41988149  0.66580529    -0.22100
C2838       C  0.60302169  0.40541021  0.66291983     0.09900
C2839       C  0.61845224  0.38992159  0.68020808     0.10300
C2840       C  0.59040051  0.37661651  0.69732527    -0.17000
C2841       C  0.55123093  0.38370581  0.69895168    -0.27400
C2842       C  0.54214474  0.40860106  0.68339810     0.18600
C2843       C  0.62016596  0.40671991  0.64195449     0.12600
C2844       C  0.66582105  0.39049727  0.68212886    -0.11800
H2845       H  0.60018133  0.36180274  0.71002901     0.12900
C2846       C  0.50328299  0.42142244  0.68475016    -0.22600
H2847       H  0.56152451  0.43875300  0.65390110     0.08500
C2848       C  0.58697159  0.39417376  0.62469412     0.04900
C2849       C  0.60649522  0.40618657  0.60564048    -0.19800
C2850       C  0.65702983  0.42548621  0.60300996    -0.12100
C2851       C  0.68683436  0.42682578  0.61905222     0.13600
C2852       C  0.66995555  0.42140354  0.63839381    -0.22600
C2853       C  0.53061495  0.36718912  0.62515164    -0.05600
H2854       H  0.58255620  0.40210020  0.59282113     0.15100
C2855       C  0.74231163  0.93782983  0.61608223    -0.15800
H2856       H  0.69802283  0.43236369  0.65009471     0.09400
H2857       H  0.50034427  0.43952986  0.67094187     0.07300
H2858       H  0.51413521  0.44936472  0.69737332     0.08500
H2859       H  0.46536937  0.38538623  0.68700168     0.07500
H2860       H  0.69971157  0.43101630  0.68138606     0.02400
H2861       H  0.66494866  0.36428921  0.67079559     0.02900
H2862       H  0.67051494  0.37801590  0.69696343     0.06400
H2863       H  0.51249693  0.33364364  0.61439356     0.05400
H2864       H  0.51999006  0.39430144  0.62054522    -0.00400
H2865       H  0.51518697  0.35089654  0.63979155     0.01100
H2866       H  0.76778251  0.97713802  0.61000045     0.04700
H2867       H  0.73830815  0.90850737  0.60533134     0.06700
H2868       H  0.75961362  0.93470884  0.63009569     0.07500
C2869       C  0.82950043  0.19796853  0.66700029    -0.22100
C2870       C  0.83299473  0.23876107  0.65644588     0.09900
C2871       C  0.84644876  0.28308425  0.66779852     0.10300
C2872       C  0.85897053  0.28759420  0.68816653    -0.17000
C2873       C  0.86158701  0.24993650  0.69820507    -0.27400
C2874       C  0.84515020  0.20329894  0.68751334     0.18600
C2875       C  0.82302355  0.23517799  0.63394292     0.12600
C2876       C  0.84895755  0.32795321  0.65941365    -0.11800
H2877       H  0.87022193  0.32344088  0.69591117     0.12900
C2878       C  0.84551291  0.16011839  0.69733532    -0.22600
H2879       H  0.81923777  0.16406914  0.65857665     0.08500
C2880       C  0.85710106  0.27476469  0.62100066     0.04900
C2881       C  0.84053206  0.27700322  0.60146981    -0.19800
C2882       C  0.79168994  0.23848384  0.59379925    -0.12100
C2883       C  0.76091942  0.19447155  0.60545865     0.13600
C2884       C  0.77723109  0.19302886  0.62524351    -0.22600
C2885       C  0.91152211  0.31473677  0.62713072    -0.05600
H2886       H  0.86558202  0.30975080  0.59230942     0.15100
C2887       C  0.70972802  0.15051729  0.59734385    -0.15800
H2888       H  0.75392508  0.15939512  0.63409115     0.09400
H2889       H  0.88479469  0.17420706  0.70216496     0.07300
H2890       H  0.83178327  0.12662485  0.68699239     0.08500
H2891       H  0.82122443  0.14652539  0.71039075     0.07500
H2892       H  0.83458576  0.32222202  0.64379327     0.02400
H2893       H  0.88897945  0.36197964  0.66098075     0.02900
H2894       H  0.82505597  0.33412303  0.66871254     0.06400
H2895       H  0.91966237  0.35439413  0.62642234     0.05400
H2896       H  0.93488498  0.31126869  0.61639602    -0.00400
H2897       H  0.92227474  0.30879878  0.64229469     0.01100
H2898       H  0.68754832  0.12305392  0.60914330     0.04700
H2899       H  0.71423310  0.12953692  0.58519092     0.06700
H2900       H  0.68796882  0.16574974  0.59121714     0.07500
C2901       C  0.50816082  0.16698254  0.81843820    -0.22100
C2902       C  0.54556216  0.18902451  0.83404379     0.09900
C2903       C  0.59626117  0.21243897  0.82953381     0.10300
C2904       C  0.60795672  0.20401630  0.81067324    -0.17000
C2905       C  0.56986279  0.17600866  0.79558236    -0.27400
C2906       C  0.52023704  0.16197497  0.79897367     0.18600
C2907       C  0.53323891  0.19277684  0.85474416     0.12600
C2908       C  0.63844590  0.24646393  0.84456161    -0.11800
H2909       H  0.64674796  0.21727281  0.80814906     0.12900
C2910       C  0.48158391  0.14565178  0.78196293    -0.22600
H2911       H  0.46988277  0.15410911  0.82141596     0.08500
C2912       C  0.53456878  0.23644667  0.86129723     0.04900
C2913       C  0.52773374  0.24194182  0.88135486    -0.19800
C2914       C  0.52153720  0.20552237  0.89521779    -0.12100
C2915       C  0.52824547  0.16627235  0.88936326     0.13600
C2916       C  0.53443738  0.16069196  0.86918135    -0.22600
C2917       C  0.54820510  0.28029953  0.84790442    -0.05600
H2918       H  0.52571921  0.27390571  0.88614090     0.15100
C2919       C  0.53025042  0.13076706  0.90402928    -0.15800
H2920       H  0.54245733  0.13261795  0.86486858     0.09400
H2921       H  0.44548058  0.13829359  0.78711761     0.07300
H2922       H  0.47327084  0.10995881  0.77446193     0.08500
H2923       H  0.49670152  0.17711955  0.77093677     0.07500
H2924       H  0.62671216  0.24744839  0.85973219     0.02400
H2925       H  0.66020234  0.28716371  0.83964766     0.02900
H2926       H  0.66121285  0.23058950  0.84590405     0.06400
H2927       H  0.58552507  0.31396629  0.85351723     0.05400
H2928       H  0.51918959  0.28895929  0.84837767    -0.00400
H2929       H  0.55193958  0.27286786  0.83217450     0.01100
H2930       H  0.49935283  0.08973136  0.90015697     0.04700
H2931       H  0.52663800  0.13965041  0.91960981     0.06700
H2932       H  0.56727738  0.13531468  0.90330028     0.07500
C2933       C  0.71253449  0.05137074  0.86508444    -0.22100
C2934       C  0.66656243  0.04642413  0.86068483     0.09900
C2935       C  0.63231225  0.03350223  0.87620997     0.10300
C2936       C  0.64503130  0.02470918  0.89524272    -0.17000
C2937       C  0.69094629  0.02980806  0.89917004    -0.27400
C2938       C  0.72651143  0.04690667  0.88450903     0.18600
C2939       C  0.65791166  0.05679970  0.83986229     0.12600
C2940       C  0.58155300  0.02665157  0.87355239    -0.11800
H2941       H  0.61041800  0.51069863  0.90885861     0.12900
C2942       C  0.77914672  0.06058727  0.88959403    -0.22600
H2943       H  0.73897378  0.06168698  0.85342188     0.08500
C2944       C  0.64940262  0.09563954  0.83514675     0.04900
C2945       C  0.64370561  0.10476751  0.81525938    -0.19800
C2946       C  0.64727583  0.07719203  0.79984417    -0.12100
C2947       C  0.65661727  0.03908903  0.80411640     0.13600
C2948       C  0.66303953  0.03007381  0.82416632    -0.22600
C2949       C  0.64846375  0.13029985  0.85031297    -0.05600
H2950       H  0.63660622  0.13416373  0.81170504     0.15100
C2951       C  0.65971497  0.00839867  0.78763516    -0.15800
H2952       H  0.67117038  0.00137685  0.82764191     0.09400
H2953       H  0.80005201  0.09626970  0.89927685     0.07300
H2954       H  0.79984976  0.06739188  0.87589458     0.08500
H2955       H  0.77856367  0.02953142  0.89786569     0.07500
H2956       H  0.57212670  0.03101570  0.85796594     0.02400
H2957       H  0.58142816  0.05569473  0.88310831     0.02900
H2958       H  0.54574302  0.48890879  0.87985749     0.06400
H2959       H  0.67812385  0.17076177  0.84688022     0.05400
H2960       H  0.65672484  0.12388387  0.86570065    -0.00400
H2961       H  0.61097100  0.12502286  0.84944431     0.01100
H2962       H  0.66671920  0.97954238  0.79361117     0.04700
H2963       H  0.69112627  0.03514243  0.77794032     0.06700
H2964       H  0.62345130  0.98707512  0.77850381     0.07500
C2965       C  0.63654232  0.02824409  0.62802189    -0.22100
C2966       C  0.67238421  0.04420673  0.64408544     0.09900
C2967       C  0.71974915  0.05270159  0.64030426     0.10300
C2968       C  0.73087688  0.04687378  0.62078549    -0.17000
C2969       C  0.69470347  0.02963458  0.60484493    -0.27400
C2970       C  0.64703275  0.02092356  0.60855681     0.18600
C2971       C  0.66049344  0.05285479  0.66460765     0.12600
C2972       C  0.75724976  0.06366557  0.65705103    -0.11800
H2973       H  0.76675677  0.05212221  0.61821652     0.12900
C2974       C  0.60631687  0.00376825  0.59229359    -0.22600
H2975       H  0.59950885  0.02013037  0.63071728     0.08500
C2976       C  0.65159172  0.09169133  0.66853308     0.04900
C2977       C  0.64525564  0.10166081  0.68814057    -0.19800
C2978       C  0.64617748  0.07327687  0.70409603    -0.12100
C2979       C  0.65456170  0.03424886  0.70053919     0.13600
C2980       C  0.66218029  0.02488590  0.68088727    -0.22600
C2981       C  0.65018582  0.12437717  0.65245092    -0.05600
H2982       H  0.63921737  0.13199043  0.69110634     0.15100
C2983       C  0.65701095  0.00393289  0.71749025    -0.15800
H2984       H  0.67060772  0.99636091  0.67830300     0.09400
H2985       H  0.59749922  0.03347931  0.59080695     0.07300
H2986       H  0.57662197  0.47691498  0.59748777     0.08500
H2987       H  0.61783001  0.99866649  0.57759016     0.07500
H2988       H  0.74813098  0.02656137  0.66334471     0.02400
H2989       H  0.75611713  0.08715573  0.66909476     0.02900
H2990       H  0.79623936  0.08570645  0.65173021     0.06400
H2991       H  0.64462190  0.15365044  0.65877688     0.05400
H2992       H  0.61897509  0.09991652  0.64124296    -0.00400
H2993       H  0.68632928  0.14586466  0.64507121     0.01100
H2994       H  0.61991543  0.98155699  0.72463788     0.04700
H2995       H  0.68710363  0.03104120  0.72873433     0.06700
H2996       H  0.66603233  0.97627979  0.71230282     0.07500
C2997       C  0.59252305  0.18787063  0.62760140    -0.22100
C2998       C  0.57650825  0.20895506  0.64145982     0.09900
C2999       C  0.55998415  0.24014564  0.63421889     0.10300
C3000       C  0.55053432  0.24027020  0.61366914    -0.17000
C3001       C  0.55486408  0.20820173  0.60060441    -0.27400
C3002       C  0.58092389  0.18607061  0.60718185     0.18600
C3003       C  0.57274245  0.19348070  0.66275153     0.12600
C3004       C  0.54946587  0.27117103  0.64766691    -0.11800
H3005       H  0.53434248  0.26083387  0.60799483     0.12900
C3006       C  0.59430171  0.15851968  0.59301671    -0.22600
H3007       H  0.60947829  0.16811785  0.63280304     0.08500
C3008       C  0.54779417  0.14046404  0.66821709     0.04900
C3009       C  0.54801300  0.12859891  0.68826081    -0.19800
C3010       C  0.57143595  0.16750856  0.70315506    -0.12100
C3011       C  0.59222824  0.21941412  0.69819001     0.13600
C3012       C  0.59442575  0.23202519  0.67803321    -0.22600
C3013       C  0.52081704  0.09443860  0.65384411    -0.05600
H3014       H  0.53176516  0.08845235  0.69216315     0.15100
C3015       C  0.61081185  0.26106613  0.71419488    -0.15800
H3016       H  0.61485179  0.27242995  0.67433774     0.09400
H3017       H  0.60941423  0.13863559  0.60122126     0.07300
H3018       H  0.62351791  0.18720802  0.58297827     0.08500
H3019       H  0.56069948  0.12862939  0.58377576     0.07500
H3020       H  0.58551409  0.30465710  0.65422722     0.02400
H3021       H  0.52394844  0.24707567  0.65949196     0.02900
H3022       H  0.03499478  0.29002623  0.64062038     0.06400
H3023       H  0.48223431  0.06583080  0.65904336     0.05400
H3024       H  0.54109955  0.07494195  0.65384676    -0.00400
H3025       H  0.51672087  0.10415717  0.63840786     0.01100
H3026       H  0.64561661  0.26891935  0.72219615     0.04700
H3027       H  0.58103317  0.24889391  0.72509235     0.06700
H3028       H  0.61948699  0.29772116  0.70777025     0.07500
C3029       C  0.88767076  0.05761697  0.88044646    -0.22100
C3030       C  0.88708721  0.08268382  0.86304765     0.09900
C3031       C  0.89491306  0.13205570  0.86510513     0.10300
C3032       C  0.90743788  0.15652225  0.88387664    -0.17000
C3033       C  0.91446950  0.13397529  0.90044074    -0.27400
C3034       C  0.90059197  0.08246784  0.89921435     0.18600
C3035       C  0.87729630  0.05772470  0.84289290     0.12600
C3036       C  0.89335296  0.16123836  0.84765356    -0.11800
H3037       H  0.91688379  0.19580373  0.88537489     0.12900
C3038       C  0.90072669  0.05443281  0.91755031    -0.22600
H3039       H  0.88083731  0.01992624  0.87962723     0.08500
C3040       C  0.91187788  0.04969737  0.83393536     0.04900
C3041       C  0.90672045  0.03902665  0.81336024    -0.19800
C3042       C  0.86769192  0.03542655  0.80129167    -0.12100
C3043       C  0.82993044  0.03783980  0.81075739     0.13600
C3044       C  0.83485468  0.04770785  0.83142082    -0.22600
C3045       C  0.95463053  0.05167446  0.84523356    -0.05600
H3046       H  0.93401064  0.03373733  0.80672858     0.15100
C3047       C  0.78460933  0.03111686  0.79950139    -0.15800
H3048       H  0.80642167  0.05015838  0.83861528     0.09400
H3049       H  0.88993597  0.01454452  0.91380816     0.07300
H3050       H  0.87291826  0.05109715  0.92796431     0.08500
H3051       H  0.93884258  0.07601726  0.92526923     0.07500
H3052       H  0.85585850  0.13953716  0.83958659     0.02400
H3053       H  0.92282942  0.16947699  0.83744231     0.02900
H3054       H  0.44026955  0.20311331  0.84622262     0.06400
H3055       H  0.99091977  0.08017404  0.83836522     0.05400
H3056       H  0.94922876  0.01340463  0.84411637    -0.00400
H3057       H  0.95744051  0.06135925  0.86123278     0.01100
H3058       H  0.75996662  0.99110133  0.79295963     0.04700
H3059       H  0.79744027  0.06024215  0.78760387     0.06700
H3060       H  0.76093430  0.03683367  0.80938392     0.07500
C3061       C  0.75584949  0.28924325  0.85787224    -0.22100
C3062       C  0.78780261  0.33930622  0.85067214     0.09900
C3063       C  0.80811982  0.38113033  0.86456255     0.10300
C3064       C  0.80448993  0.37189821  0.88528364    -0.17000
C3065       C  0.77655046  0.32092578  0.89229921    -0.27400
C3066       C  0.74763982  0.27968384  0.87830639     0.18600
C3067       C  0.79699099  0.34715750  0.82864786     0.12600
C3068       C  0.83368872  0.43563060  0.85780030    -0.11800
H3069       H  0.82525775  0.40437858  0.89587222     0.12900
C3070       C  0.70982181  0.22510655  0.88489081    -0.22600
H3071       H  0.73729705  0.25758528  0.84737661     0.08500
C3072       C  0.84627289  0.37526770  0.82096322     0.04900
C3073       C  0.85232213  0.38759998  0.80072182    -0.19800
C3074       C  0.81082526  0.37419425  0.78774163    -0.12100
C3075       C  0.76133821  0.34073995  0.79469474     0.13600
C3076       C  0.75532753  0.32753754  0.81493146    -0.22600
C3077       C  0.89395601  0.39483645  0.83350213    -0.05600
H3078       H  0.89056701  0.41198138  0.79554752     0.15100
C3079       C  0.71463719  0.31889976  0.78099696    -0.15800
H3080       H  0.71772140  0.30320291  0.82010313     0.09400
H3081       H  0.72086213  0.19929189  0.87974578     0.07300
H3082       H  0.67140332  0.21102471  0.87858636     0.08500
H3083       H  0.70712927  0.22221326  0.90131455     0.07500
H3084       H  0.83419291  0.43951341  0.84141033     0.02400
H3085       H  0.87335139  0.45803095  0.86401746     0.02900
H3086       H  0.81206078  0.45100136  0.86299812     0.06400
H3087       H  0.92139602  0.43698114  0.83134255     0.05400
H3088       H  0.91152132  0.37458949  0.82860654    -0.00400
H3089       H  0.88705843  0.38923165  0.84952114     0.01100
H3090       H  0.67960832  0.29012001  0.78852667     0.04700
H3091       H  0.71741982  0.29920604  0.76783019     0.06700
H3092       H  0.70987438  0.34995737  0.77608321     0.07500
C3093       C  0.92491331  0.09268629  0.62799818    -0.22100
C3094       C  0.92096137  0.12479084  0.64133841     0.09900
C3095       C  0.92724958  0.17052621  0.63370714     0.10300
C3096       C  0.93997357  0.18376038  0.61374188    -0.17000
C3097       C  0.94753570  0.15297697  0.60116435    -0.27400
C3098       C  0.93767764  0.10565196  0.60816804     0.18600
C3099       C  0.90906051  0.10844790  0.66269530     0.12600
C3100       C  0.91861218  0.20514291  0.64565875    -0.11800
H3101       H  0.94598149  0.21949621  0.60817133     0.12900
C3102       C  0.94055327  0.06793175  0.59522976    -0.22600
H3103       H  0.91932496  0.05743209  0.63313228     0.08500
C3104       C  0.86526965  0.05970410  0.66744950     0.04900
C3105       C  0.85520240  0.04627937  0.68748131    -0.19800
C3106       C  0.88900390  0.07839068  0.70319390    -0.12100
C3107       C  0.93283189  0.12682092  0.69874967     0.13600
C3108       C  0.94224274  0.14128495  0.67861552    -0.22600
C3109       C  0.82929519  0.02023437  0.65167063    -0.05600
H3110       H  0.82183609  0.00851645  0.69084261     0.15100
C3111       C  0.96761879  0.16428812  0.71527009    -0.15800
H3112       H  0.97605579  0.17807025  0.67541229     0.09400
H3113       H  0.90320030  0.02988518  0.59472199     0.07300
H3114       H  0.48175409  0.07716449  0.59359366     0.08500
H3115       H  0.41578034  0.04285470  0.58540831     0.07500
H3116       H  0.95264024  0.24548538  0.64652655     0.02400
H3117       H  0.90796201  0.19180833  0.66100586     0.02900
H3118       H  0.88790367  0.20577243  0.63778251     0.06400
H3119       H  0.79364118  0.98859360  0.65814542     0.05400
H3120       H  0.84630542  0.00186281  0.64474690    -0.00400
H3121       H  0.82004333  0.03829176  0.63964320     0.01100
H3122       H  0.98532251  0.14780789  0.72407062     0.04700
H3123       H  0.94568108  0.17191851  0.72538013     0.06700
H3124       H  0.99799652  0.20209370  0.70931478     0.07500
C3125       C  0.76032037  0.37074573  0.66465236    -0.22100
C3126       C  0.79875151  0.38927534  0.65109828     0.09900
C3127       C  0.85032420  0.42399016  0.65852609     0.10300
C3128       C  0.86026374  0.43544820  0.67923472    -0.17000
C3129       C  0.82116085  0.40990343  0.69269115    -0.27400
C3130       C  0.77116003  0.37416528  0.68514070     0.18600
C3131       C  0.78384252  0.36354734  0.63069328     0.12600
C3132       C  0.89550954  0.44504838  0.64557898    -0.11800
H3133       H  0.89878356  0.46367610  0.68493325     0.12900
C3134       C  0.73048065  0.33464613  0.69829924    -0.22600
H3135       H  0.72123224  0.34822530  0.65919112     0.08500
C3136       C  0.74723583  0.30865456  0.62765901     0.04900
C3137       C  0.73765086  0.28685032  0.60850546    -0.19800
C3138       C  0.76637415  0.31592602  0.59262588    -0.12100
C3139       C  0.80093611  0.37016586  0.59510706     0.13600
C3140       C  0.80787412  0.39342883  0.61392591    -0.22600
C3141       C  0.71971371  0.27039695  0.64406053    -0.05600
H3142       H  0.70935304  0.24561343  0.60608313     0.15100
C3143       C  0.83166835  0.40335125  0.57816768    -0.15800
H3144       H  0.83225171  0.43526438  0.61541552     0.09400
H3145       H  0.69628283  0.30497034  0.68927450     0.07300
H3146       H  0.71902337  0.35259985  0.70904225     0.08500
H3147       H  0.74455407  0.31398394  0.70667588     0.07500
H3148       H  0.89949925  0.47501034  0.63557844     0.02400
H3149       H  0.89197965  0.41385164  0.63617785     0.02900
H3150       H  0.93159971  0.46309850  0.65473799     0.06400
H3151       H  0.70530645  0.23024773  0.63904947     0.05400
H3152       H  0.68611203  0.26979949  0.64811651    -0.00400
H3153       H  0.74474761  0.27843476  0.65738899     0.01100
H3154       H  0.80625551  0.40193477  0.56601673     0.04700
H3155       H  0.85407410  0.38922083  0.57235635     0.06700
H3156       H  0.85850261  0.44463928  0.58298873     0.07500
O3157       O  0.82776745  0.77592582  0.98395276    -0.80500
O3158       O  0.81410808  0.60344384  0.03841528    -0.65200
O3159       O  0.85251075  0.71370436  0.00172581    -1.11800
C3160       C  0.77476045  0.55480954  0.96492046     1.06400
O3161       O  0.81605193  0.54574813  0.01750056    -0.78400
O3162       O  0.90737350  0.63629342  0.97697497    -0.66000
Ni3163     Ni  0.87190447  0.78018835  0.00637792     1.34900
C3164       C  0.91944597  0.67875685  0.96863878     0.85100
O3165       O  0.90624430  0.70462425  0.03036514    -0.78900
O3166       O  0.92067704  0.78516064  0.02785116    -0.89200
C3167       C  0.80619374  0.55764883  0.03420510     0.84700
O3168       O  0.81832193  0.76285600  0.02439051    -0.67400
O3169       O  0.80147667  0.54496184  0.97674283    -0.86700
C3170       C  0.80433603  0.73358959  0.03940446     0.85500
C3171       C  0.93497374  0.75481338  0.03377655     1.07100
H3172       H  0.79356494  0.59798086  0.00048333     0.38900
O3173       O  0.82892424  0.62604220  0.99980729    -1.09400
O3174       O  0.88983388  0.69434051  0.96925394    -0.66000
Ni3175     Ni  0.82276613  0.66469604  0.98067866     1.26300
O3176       O  0.81956748  0.70249285  0.04213673    -0.66200
O3177       O  0.78687053  0.60258122  0.96267726    -0.78500
C3178       C  0.81263034  0.75033265  0.96709547     0.84900
O3179       O  0.81249394  0.70907777  0.96359875    -0.65700
Ni3180     Ni  0.85850133  0.59014547  0.99662897     1.27400
Ni3181     Ni  0.83294713  0.66473702  0.02190674     1.26100
H3182       H  0.88662936  0.72454279  0.99953873     0.39500
O3183       O  0.78202988  0.54447457  0.48162942    -0.80500
O3184       O  0.77272227  0.68058930  0.51896394    -0.65200
O3185       O  0.81070282  0.62729411  0.50213619    -1.11800
C3186       C  0.93382626  0.77781486  0.46942973     1.06400
O3187       O  0.81969041  0.76819706  0.51829338    -0.78400
O3188       O  0.82561929  0.76816741  0.47906696    -0.66000
Ni3189     Ni  0.83303363  0.58156399  0.50218697     1.34900
C3190       C  0.78977811  0.72364864  0.47233983     0.85100
O3191       O  0.78681276  0.60906034  0.54037642    -0.78900
O3192       O  0.78750109  0.54507241  0.52380284    -0.89200
C3193       C  0.77860897  0.72488222  0.52250012     0.84700
O3194       O  0.89367245  0.61733331  0.51983826    -0.67400
O3195       O  0.93005252  0.80470387  0.48302728    -0.86700
C3196       C  0.91486940  0.65872847  0.53030519     0.85500
C3197       C  0.77207450  0.56030747  0.53793055     1.07100
H3198       H  0.90401223  0.73519682  0.50785415     0.38900
O3199       O  0.86921302  0.72315162  0.50476929    -1.09400
O3200       O  0.79231390  0.68356524  0.47443021    -0.66000
Ni3201     Ni  0.84817901  0.67522663  0.48296637     1.26300
O3202       O  0.89130435  0.67969954  0.53335286    -0.66200
O3203       O  0.89785117  0.72925303  0.46552489    -0.78500
C3204       C  0.79397839  0.56479481  0.46449755     0.84900
O3205       O  0.82187864  0.61601725  0.46279731    -0.65700
Ni3206     Ni  0.87444474  0.78587581  0.50077559     1.27400
Ni3207     Ni  0.82920004  0.67265402  0.52441868     1.26100
H3208       H  0.77456532  0.60907142  0.49889807     0.39500
O3209       O  0.82097488  0.51017146  0.76818551    -0.74000
O3210       O  0.79996925  0.93155936  0.72075828    -0.74100
O3211       O  0.78986942  0.90961655  0.76062153    -0.74100
O3212       O  0.82835740  0.52585882  0.72767997    -0.74200
O3213       O  0.90843344  0.54882186  0.73045942    -0.74100
O3214       O  0.86775837  0.92705293  0.76179936    -0.74100
O3215       O  0.87936548  0.95282232  0.72179674    -0.74100
O3216       O  0.89879241  0.52775057  0.77107955    -0.74100
Ni3217     Ni  0.80939046  0.96866889  0.74476431     1.25400
Ni3218     Ni  0.89357986  0.98924158  0.74693597     1.25400
C3219       C  0.86227841  0.52778198  0.77845821     0.88100
C3220       C  0.83616042  0.93297078  0.71251595     0.88100
C3221       C  0.82250396  0.90170713  0.76803232     0.88100
C3222       C  0.87381683  0.55205496  0.72174565     0.88300
O3223       O  0.59580269  0.55381875  0.73200868    -0.74000
O3224       O  0.55257503  0.60960506  0.77115576    -0.74100
O3225       O  0.55432624  0.60777317  0.73041341    -0.74100
O3226       O  0.59350090  0.55433798  0.77277308    -0.74200
O3227       O  0.67085613  0.62868999  0.77454675    -0.74100
O3228       O  0.63143091  0.68193091  0.73233416    -0.74100
O3229       O  0.62982399  0.68335363  0.77291752    -0.74100
O3230       O  0.67283791  0.62833986  0.73391181    -0.74100
Ni3231     Ni  0.57124576  0.57862365  0.75158261     1.25400
Ni3232     Ni  0.65399696  0.65809456  0.75353150     1.25400
C3233       C  0.64039385  0.58406247  0.72548866     0.88100
C3234       C  0.58453301  0.65512791  0.77892967     0.88100
C3235       C  0.58770292  0.65211412  0.72351796     0.88100
C3236       C  0.63736732  0.58441434  0.78139492     0.88300
O3237       O  0.50750534  0.87622822  0.76468732    -0.74000
O3238       O  0.89816090  0.81049297  0.72419918    -0.74100
O3239       O  0.90807568  0.81365213  0.76524268    -0.74100
O3240       O  0.49872007  0.87491871  0.72368683    -0.74200
O3241       O  0.51214328  0.81198634  0.72281540    -0.74100
O3242       O  0.91917542  0.74908814  0.76371799    -0.74100
O3243       O  0.91040381  0.74685112  0.72234216    -0.74100
O3244       O  0.51935340  0.81237465  0.76363258    -0.74100
Ni3245     Ni  0.95235832  0.84958225  0.74396947     1.25400
Ni3246     Ni  0.96503276  0.78109860  0.74246278     1.25400
C3247       C  0.52856948  0.85414430  0.77188161     0.88100
C3248       C  0.88915557  0.76902804  0.71558974     0.88100
C3249       C  0.90303768  0.77313284  0.77264884     0.88100
C3250       C  0.51924707  0.85396096  0.71589046     0.88300
C3251       C  0.51766387  0.69086478  0.54532196     0.02700
C3252       C  0.95847880  0.67345163  0.54487499     0.02600
C3253       C  0.93813027  0.65335299  0.56354591    -0.17900
C3254       C  0.96781046  0.66860121  0.58110743     0.02700
C3255       C  0.52536495  0.68731779  0.58172511     0.02600
C3256       C  0.54659093  0.69985355  0.56325438    -0.17900
H3257       H  0.58748746  0.71918725  0.56307937     0.04700
H3258       H  0.89737961  0.62579465  0.56469351     0.04700
C3259       C  0.71176431  0.96240372  0.55133076     0.02700
C3260       C  0.73702333  0.52004685  0.55301476     0.02600
C3261       C  0.73242910  0.54174242  0.57089451    -0.17900
C3262       C  0.70433776  0.51101782  0.58681693     0.02700
C3263       C  0.68439559  0.95517969  0.58553844     0.02600
C3264       C  0.69003244  0.93354795  0.56863051    -0.17900
H3265       H  0.67433431  0.89229539  0.56885532     0.04700
H3266       H  0.75111488  0.58337898  0.57270442     0.04700
C3267       C  0.77119983  0.79467353  0.94806674     0.02700
C3268       C  0.80120782  0.77266913  0.94929489     0.02600
C3269       C  0.82362537  0.77080195  0.93181683    -0.17900
C3270       C  0.81800643  0.78880081  0.91354519     0.02700
C3271       C  0.78855813  0.80956885  0.91202388     0.02600
C3272       C  0.76553712  0.81210544  0.92908849    -0.17900
H3273       H  0.74291793  0.82805466  0.92745488     0.04700
H3274       H  0.84643409  0.75490407  0.93229008     0.04700
C3275       C  0.74570469  0.72824707  0.53725714     0.02700
C3276       C  0.73432899  0.76775774  0.53728765     0.02600
C3277       C  0.74704302  0.79830664  0.55485551    -0.17900
C3278       C  0.76471566  0.78811155  0.57247527     0.02700
C3279       C  0.76728436  0.74415428  0.57312890     0.02600
C3280       C  0.75481229  0.71327140  0.55591418    -0.17900
H3281       H  0.76139689  0.68261951  0.55658525     0.04700
H3282       H  0.73847225  0.82740236  0.55552737     0.04700
C3283       C  0.70429274  0.95462859  0.95000221     0.02700
C3284       C  0.72915780  0.51111165  0.95174204     0.02600
C3285       C  0.71552008  0.53197035  0.93611241    -0.17900
C3286       C  0.68829216  0.50353985  0.91897634     0.02700
C3287       C  0.67734228  0.95116292  0.91459621     0.02600
C3288       C  0.68115894  0.92707258  0.93147927    -0.17900
H3289       H  0.66231824  0.88518272  0.93047302     0.04700
H3290       H  0.72947061  0.57277626  0.93609266     0.04700
C3291       C  0.51285135  0.73399670  0.94967124     0.02700
C3292       C  0.95541708  0.69715715  0.95151974     0.02600
C3293       C  0.92468801  0.66666542  0.93479642    -0.17900
C3294       C  0.94447958  0.66612027  0.91702850     0.02700
C3295       C  0.50019495  0.69783021  0.91567338     0.02600
C3296       C  0.53112644  0.73292955  0.93089926    -0.17900
H3297       H  0.57080044  0.76001287  0.92772930     0.04700
H3298       H  0.88357557  0.64083733  0.93554677     0.04700
O3299       O  0.66023241  0.72082264  0.47769288    -0.80500
O3300       O  0.66741496  0.87656966  0.53405763    -0.65200
O3301       O  0.61430397  0.76938042  0.49182630    -1.11800
C3302       C  0.71536252  0.93273320  0.45909298     1.06400
O3303       O  0.70855899  0.94857310  0.51562924    -0.78400
O3304       O  0.59635523  0.88191177  0.47732983    -0.66000
Ni3305     Ni  0.60724321  0.70549676  0.49581562     1.34900
C3306       C  0.57210592  0.84060127  0.46671066     0.85100
O3307       O  0.59012383  0.76503003  0.53151115    -0.78900
O3308       O  0.55360546  0.68832546  0.51441647    -0.89200
C3309       C  0.69716751  0.92767850  0.53266382     0.84700
O3310       O  0.65684721  0.72249035  0.51708995    -0.67400
O3311       O  0.70258156  0.94947149  0.47363619    -0.86700
C3312       C  0.69360328  0.76640150  0.52394420     0.85500
C3313       C  0.55338345  0.71643401  0.52849141     1.07100
H3314       H  0.71167940  0.88190554  0.49716988     0.38900
O3315       O  0.67571590  0.86522341  0.49436333    -1.09400
O3316       O  0.59205946  0.81567906  0.46372949    -0.66000
Ni3317     Ni  0.65382625  0.81946697  0.47189475     1.26300
O3318       O  0.69327055  0.80767204  0.52179592    -0.66200
O3319       O  0.69718644  0.88309918  0.45611598    -0.78500
C3320       C  0.70172810  0.76303938  0.47296514     0.84900
O3321       O  0.70913161  0.80832770  0.47609711    -0.65700
Ni3322     Ni  0.65671450  0.91379929  0.49511876     1.27400
Ni3323     Ni  0.63844413  0.81778057  0.51370605     1.26100
H3324       H  0.57966410  0.75849848  0.48913172     0.39500
O3325       O  0.55526249  0.81440241  0.01710512    -0.80500
O3326       O  0.70649509  0.80325180  0.96167721    -0.65200
O3327       O  0.62839063  0.82058005  0.99846206    -1.11800
C3328       C  0.75602516  0.92568076  0.03192778     1.06400
O3329       O  0.77308581  0.81896830  0.98231088    -0.78400
O3330       O  0.76339570  0.80768636  0.02300875    -0.66000
Ni3331     Ni  0.59915951  0.85740038  0.99591103     1.34900
C3332       C  0.73569268  0.79288050  0.03805497     0.85100
O3333       O  0.60179188  0.78070354  0.96140527    -0.78900
O3334       O  0.55170367  0.80240080  0.97593070    -0.89200
C3335       C  0.74795844  0.80473037  0.96529249     0.84700
O3336       O  0.64436879  0.90697652  0.97581481    -0.67400
O3337       O  0.78512982  0.91146191  0.02593810    -0.86700
C3338       C  0.68291389  0.91540499  0.96673517     0.85500
C3339       C  0.55743229  0.77393294  0.96371642     1.07100
H3340       H  0.72373467  0.87677502  0.99786778     0.38900
O3341       O  0.71302086  0.84158826  0.00017403    -1.09400
O3342       O  0.70553880  0.80841274  0.04069182    -0.66000
Ni3343     Ni  0.66711765  0.82264932  0.02050435     1.26300
O3344       O  0.69459153  0.88230077  0.96731780    -0.66200
O3345       O  0.70710716  0.89724134  0.02832061    -0.78500
C3346       C  0.56588008  0.80078729  0.03371084     0.84900
O3347       O  0.60932248  0.80504137  0.03753847    -0.65700
Ni3348     Ni  0.77864839  0.86281481  0.00460512     1.27400
Ni3349     Ni  0.66411005  0.81356615  0.97909230     1.26100
H3350       H  0.59947062  0.78500351  0.99929482     0.39500
O3351       O  0.96929063  0.69905982  0.23191534    -0.74000
O3352       O  0.57534821  0.73331769  0.27088619    -0.74100
O3353       O  0.56341915  0.72455980  0.22933037    -0.74100
O3354       O  0.97925890  0.70466822  0.27351100    -0.74200
O3355       O  0.94932848  0.62062025  0.27256215    -0.74100
O3356       O  0.53935170  0.64240159  0.23207442    -0.74100
O3357       O  0.54552500  0.64981796  0.27370154    -0.74100
O3358       O  0.94325100  0.61589102  0.23210438    -0.74100
Ni3359     Ni  0.52317075  0.71864938  0.25164660     1.25400
Ni3360     Ni  0.49420485  0.62954259  0.25255413     1.25400
C3361       C  0.94067570  0.65254212  0.22479052     0.88100
C3362       C  0.57166533  0.69665265  0.28099535     0.88100
C3363       C  0.56205811  0.68491272  0.22266689     0.88100
C3364       C  0.95374782  0.65938781  0.28124395     0.88300
O3365       O  0.97099150  0.92709308  0.27423659    -0.74000
O3366       O  0.89930225  0.94446722  0.23240498    -0.74100
O3367       O  0.89462088  0.93750294  0.27237416    -0.74100
O3368       O  0.97678003  0.93629503  0.23317677    -0.74200
O3369       O  0.92050137  0.85075399  0.22874911    -0.74100
O3370       O  0.84142581  0.85122167  0.26996757    -0.74100
O3371       O  0.84294245  0.85888820  0.22937311    -0.74100
O3372       O  0.91912983  0.84184722  0.26947641    -0.74100
Ni3373     Ni  0.93764243  0.93946909  0.25316358     1.25400
Ni3374     Ni  0.87910093  0.84732333  0.24928116     1.25400
C3375       C  0.94736815  0.88131709  0.28115292     0.88100
C3376       C  0.86201021  0.90476035  0.22301713     0.88100
C3377       C  0.85715304  0.89467301  0.27877385     0.88100
C3378       C  0.95809221  0.89440036  0.22281832     0.88300
C3379       C  0.78304466  0.52942758  0.44637166     0.02700
C3380       C  0.75262839  0.97237488  0.44441931     0.02600
C3381       C  0.75493713  0.94957663  0.42650300    -0.17900
C3382       C  0.78918457  0.97835625  0.41171699     0.02700
C3383       C  0.81816492  0.53212824  0.41383755     0.02600
C3384       C  0.81536502  0.55669719  0.43064098    -0.17900
H3385       H  0.84152496  0.59866202  0.43166901     0.04700
H3386       H  0.72880975  0.90813933  0.42364309     0.04700
O3387       O  0.62169714  0.96795131  0.22894220    -0.74000
O3388       O  0.65993287  0.55713790  0.27505411    -0.74100
O3389       O  0.66297906  0.56795240  0.23471168    -0.74100
O3390       O  0.61422116  0.95540816  0.26936946    -0.74200
O3391       O  0.69026181  0.96791596  0.27253979    -0.74100
O3392       O  0.73701624  0.57680002  0.23497635    -0.74100
O3393       O  0.73573232  0.56938091  0.27559687    -0.74100
O3394       O  0.69583508  0.97627904  0.23152797    -0.74100
Ni3395     Ni  0.63518559  0.51087774  0.25235820     1.25400
Ni3396     Ni  0.71548892  0.52184233  0.25365460     1.25400
C3397       C  0.65325356  0.95925073  0.22215919     0.88100
C3398       C  0.70379601  0.57554588  0.28360198     0.88100
C3399       C  0.70724852  0.58925421  0.22803426     0.88100
C3400       C  0.64474528  0.94642505  0.27819121     0.88300
C3401       C  0.77695189  0.96546075  0.04895145     0.02700
C3402       C  0.79097556  0.51887522  0.05059597     0.02600
C3403       C  0.80411360  0.54335917  0.06968480    -0.17900
C3404       C  0.80567202  0.51908700  0.08669934     0.02700
C3405       C  0.79751847  0.96945055  0.08454943     0.02600
C3406       C  0.77833655  0.94191898  0.06659636    -0.17900
H3407       H  0.76521090  0.90120065  0.06645187     0.04700
H3408       H  0.81680138  0.58361882  0.07162624     0.04700
C3409       C  0.74784941  0.71979918  0.45880920     0.02700
C3410       C  0.73251653  0.75661171  0.45786905     0.02600
C3411       C  0.71848664  0.76561456  0.43882683    -0.17900
C3412       C  0.70969790  0.73428537  0.42213037     0.02700
C3413       C  0.71991802  0.69597478  0.42364864     0.02600
C3414       C  0.73760483  0.68848973  0.44172655    -0.17900
H3415       H  0.74875561  0.66134621  0.44163178     0.04700
H3416       H  0.70667389  0.79216548  0.43741203     0.04700
C3417       C  0.77059674  0.73607889  0.05484114     0.02700
C3418       C  0.73887939  0.75773983  0.05367221     0.02600
C3419       C  0.70550539  0.74539547  0.06949571    -0.17900
C3420       C  0.70575098  0.72035612  0.08680128     0.02700
C3421       C  0.74019373  0.70590619  0.08881081     0.02600
C3422       C  0.77009027  0.71210900  0.07295054    -0.17900
H3423       H  0.79510095  0.69917500  0.07538064     0.04700
H3424       H  0.67890533  0.75655774  0.06884904     0.04700
C3425       C  0.97316302  0.80650139  0.45391412     0.02700
C3426       C  0.53050400  0.83187888  0.45182634     0.02600
C3427       C  0.55327539  0.85365246  0.43364875    -0.17900
C3428       C  0.52569376  0.84903380  0.41627408     0.02700
C3429       C  0.97453523  0.83039661  0.41880491     0.02600
C3430       C  0.94937002  0.81014993  0.43638430    -0.17900
H3431       H  0.90917738  0.79480128  0.43605603     0.04700
H3432       H  0.59408410  0.87358016  0.43261560     0.04700
C3433       C  0.52911815  0.78584476  0.05049205     0.02700
C3434       C  0.97833001  0.77671477  0.04981749     0.02600
C3435       C  0.96357095  0.78753457  0.06765171    -0.17900
C3436       C  0.99313743  0.80240094  0.08542544     0.02700
C3437       C  0.53788147  0.80501298  0.08663343     0.02600
C3438       C  0.55362049  0.79355418  0.06956234    -0.17900
H3439       H  0.58934758  0.79698340  0.07114270     0.04700
H3440       H  0.92827555  0.78515896  0.06774829     0.07100
C3441       C  0.56876130  0.85579364  0.32006837    -0.22100
C3442       C  0.60042087  0.88577892  0.33663707     0.09900
C3443       C  0.64704007  0.93288570  0.33356305     0.10300
C3444       C  0.66251761  0.94778791  0.31409870    -0.17000
C3445       C  0.63038026  0.91949402  0.29743503    -0.27400
C3446       C  0.58220939  0.87345694  0.30047665     0.18600
C3447       C  0.58062223  0.87476677  0.35696112     0.12600
C3448       C  0.67856743  0.96898668  0.35100576    -0.11800
H3449       H  0.69809280  0.98432356  0.31193636     0.12900
C3450       C  0.54482704  0.84344215  0.28322345    -0.22600
H3451       H  0.53208380  0.82054389  0.32248768     0.08500
C3452       C  0.56166470  0.90239838  0.36456538     0.04900
C3453       C  0.54977244  0.89832325  0.38463314    -0.19800
C3454       C  0.55136849  0.86265109  0.39687318    -0.12100
C3455       C  0.57039251  0.83457901  0.38920063     0.13600
C3456       C  0.58669214  0.84261036  0.36953533    -0.22600
C3457       C  0.55179554  0.93412589  0.35091162    -0.05600
H3458       H  0.03892284  0.92264042  0.39394830     0.15100
C3459       C  0.57133471  0.79430288  0.40127051    -0.15800
H3460       H  0.60325758  0.82305123  0.36383593     0.09400
H3461       H  0.53328757  0.86751313  0.27591974     0.07300
H3462       H  0.50990121  0.80739604  0.28821025     0.08500
H3463       H  0.56227094  0.83235279  0.27213853     0.07500
H3464       H  0.68905405  0.94848401  0.36137770     0.02400
H3465       H  0.65746936  0.98098030  0.35936145     0.02900
H3466       H  0.71261074  0.00553771  0.34622075     0.06400
H3467       H  0.03650567  0.95530832  0.36288549     0.05400
H3468       H  0.52468168  0.90781741  0.33896743    -0.00400
H3469       H  0.58617018  0.96399196  0.34339454     0.01100
H3470       H  0.58422447  0.77436157  0.39237495     0.04700
H3471       H  0.53263077  0.76446306  0.40611228     0.06700
H3472       H  0.59807547  0.81268530  0.41445829     0.07500
C3473       C  0.63277964  0.89365704  0.12789144    -0.22100
C3474       C  0.61713157  0.85970902  0.14404250     0.09900
C3475       C  0.58340412  0.80556514  0.13984241     0.10300
C3476       C  0.55924318  0.78824185  0.12069499    -0.17000
C3477       C  0.57122146  0.82322061  0.10523670    -0.27400
C3478       C  0.61145525  0.87602307  0.10851153     0.18600
C3479       C  0.62755070  0.88350080  0.16472762     0.12600
C3480       C  0.57241543  0.76571932  0.15518182    -0.11800
H3481       H  0.53006259  0.74733288  0.11785261     0.12900
C3482       C  0.63100327  0.91539665  0.09222062    -0.22600
H3483       H  0.65984758  0.93506817  0.13068033     0.08500
C3484       C  0.65203324  0.87545762  0.18108003     0.04900
C3485       C  0.65709347  0.89814649  0.19986475    -0.19800
C3486       C  0.64179012  0.93179534  0.20265630    -0.12100
C3487       C  0.62111314  0.94325879  0.18612767     0.13600
C3488       C  0.61317451  0.91811699  0.16770463    -0.22600
C3489       C  0.67691706  0.84696717  0.17939984    -0.05600
H3490       H  0.67527921  0.89124710  0.21229091     0.15100
C3491       C  0.61086775  0.98480215  0.18736018    -0.15800
H3492       H  0.59584444  0.92597249  0.15536230     0.09400
H3493       H  0.67167974  0.93152761  0.09031371     0.07300
H3494       H  0.62755602  0.94778108  0.09637855     0.08500
H3495       H  0.61042940  0.89873187  0.07761120     0.07500
H3496       H  0.56027405  0.77324348  0.16921021     0.02400
H3497       H  0.60644164  0.76634849  0.15861054     0.02900
H3498       H  0.54389339  0.72556949  0.14944812     0.06400
H3499       H  0.71597174  0.87032036  0.18636008     0.05400
H3500       H  0.68028127  0.83919079  0.16373960    -0.00400
H3501       H  0.65485917  0.81068759  0.18767900     0.01100
H3502       H  0.64649079  0.02188075  0.19229198     0.04700
H3503       H  0.58083189  0.97396430  0.19793192     0.06700
H3504       H  0.59832467  0.99144610  0.17275274     0.07500
C3505       C  0.74662715  0.60893285  0.33842424    -0.22100
C3506       C  0.71201001  0.61925806  0.34493009     0.09900
C3507       C  0.68061996  0.62235302  0.33044363     0.10300
C3508       C  0.68155453  0.61154719  0.31041568    -0.17000
C3509       C  0.71439304  0.59894349  0.30394037    -0.27400
C3510       C  0.74931094  0.60009178  0.31810088     0.18600
C3511       C  0.71365695  0.63202767  0.36650136     0.12600
C3512       C  0.64509997  0.63664786  0.33516938    -0.11800
H3513       H  0.65534006  0.61215267  0.29976845     0.12900
C3514       C  0.78950594  0.59225960  0.31226694    -0.22600
H3515       H  0.77091412  0.60669967  0.34946464     0.08500
C3516       C  0.67130861  0.60525220  0.37873325     0.04900
C3517       C  0.67495262  0.62489798  0.39799996    -0.19800
C3518       C  0.72033228  0.66950348  0.40550354    -0.12100
C3519       C  0.76397158  0.69278322  0.39418312     0.13600
C3520       C  0.75956143  0.67445923  0.37473114    -0.22600
C3521       C  0.62164629  0.55694038  0.37187392    -0.05600
H3522       H  0.64169813  0.60662687  0.40689208     0.15100
C3523       C  0.81500335  0.73902582  0.40162723    -0.15800
H3524       H  0.79162123  0.69536240  0.36543516     0.09400
H3525       H  0.81164143  0.59354383  0.32558714     0.07300
H3526       H  0.81576381  0.62356059  0.30219901     0.08500
H3527       H  0.77288237  0.55391277  0.30484869     0.07500
H3528       H  0.64891312  0.64901624  0.35089086     0.02400
H3529       H  0.60586437  0.60258653  0.33156354     0.02900
H3530       H  0.65322281  0.66928851  0.32559919     0.06400
H3531       H  0.59055459  0.56274002  0.37306118     0.05400
H3532       H  0.61375002  0.52425081  0.38144027    -0.00400
H3533       H  0.62209009  0.54658162  0.35623117     0.01100
H3534       H  0.84309995  0.72865300  0.40184126     0.04700
H3535       H  0.81499598  0.75274980  0.41684476     0.06700
H3536       H  0.82734221  0.77163017  0.39137899     0.07500
C3537       C  0.69979370  0.64558080  0.17889068    -0.22100
C3538       C  0.74739570  0.66330255  0.17160101     0.09900
C3539       C  0.78578864  0.67022183  0.18525911     0.10300
C3540       C  0.77259623  0.64990465  0.20447811    -0.17000
C3541       C  0.72245578  0.62432142  0.21064343    -0.27400
C3542       C  0.68660650  0.62636548  0.19815592     0.18600
C3543       C  0.75316701  0.67025485  0.14951831     0.12600
C3544       C  0.84017895  0.69765768  0.17977920    -0.11800
H3545       H  0.80142362  0.65262443  0.21450455     0.12900
C3546       C  0.63383237  0.60700279  0.20434554    -0.22600
H3547       H  0.67169729  0.64449669  0.16894183     0.08500
C3548       C  0.71743702  0.62994633  0.13590800     0.04900
C3549       C  0.71624370  0.64114476  0.11567387    -0.19800
C3550       C  0.75028779  0.69108218  0.10863500    -0.12100
C3551       C  0.79048284  0.72875674  0.12144012     0.13600
C3552       C  0.79163645  0.71793425  0.14172531    -0.22600
C3553       C  0.68116936  0.57469445  0.14244645    -0.05600
H3554       H  0.68737912  0.61123832  0.10540366     0.15100
C3555       C  0.83100216  0.78095690  0.11365901    -0.15800
H3556       H  0.82149298  0.74787845  0.15145368     0.09400
H3557       H  0.61125303  0.56477394  0.20704850     0.07300
H3558       H  0.61219969  0.61265459  0.19254177     0.08500
H3559       H  0.63626663  0.62856048  0.21799821     0.07500
H3560       H  0.85716189  0.73979739  0.17825422     0.02400
H3561       H  0.84247395  0.68091100  0.16564189     0.02900
H3562       H  0.86351875  0.69451109  0.19160716     0.06400
H3563       H  0.65985154  0.54814795  0.12944911     0.05400
H3564       H  0.65262167  0.57118268  0.15233542    -0.00400
H3565       H  0.70238659  0.56080342  0.15043231     0.01100
H3566       H  0.81420379  0.80203837  0.10830430     0.04700
H3567       H  0.84941338  0.77579349  0.10110171     0.06700
H3568       H  0.86104683  0.80538763  0.12521774     0.07500
C3569       C  0.94448705  0.90710198  0.33650191    -0.22100
C3570       C  0.90649804  0.85725846  0.34235864     0.09900
C3571       C  0.87707085  0.81845755  0.32757420     0.10300
C3572       C  0.89384898  0.82651723  0.30821966    -0.17000
C3573       C  0.93774378  0.87419310  0.30276811    -0.27400
C3574       C  0.96207196  0.91599676  0.31706801     0.18600
C3575       C  0.91313362  0.84242706  0.36265064     0.12600
C3576       C  0.82938221  0.76743412  0.33226589    -0.11800
H3577       H  0.87147631  0.79508753  0.29731910     0.12900
C3578       C  0.00783746  0.96933133  0.31260745    -0.22600
H3579       H  0.96433265  0.93788759  0.34775418     0.08500
C3580       C  0.93188929  0.81085561  0.36479231     0.04900
C3581       C  0.94448582  0.80196625  0.38381662    -0.19800
C3582       C  0.94550732  0.82917040  0.40058130    -0.12100
C3583       C  0.92723120  0.86133403  0.39860261     0.13600
C3584       C  0.91073788  0.86716694  0.37960903    -0.22600
C3585       C  0.94703643  0.79381916  0.34697959    -0.05600
H3586       H  0.45704932  0.77547726  0.38420803     0.15100
C3587       C  0.92767353  0.89164931  0.41616910    -0.15800
H3588       H  0.89895793  0.89348953  0.37781745     0.09400
H3589       H  0.03797106  0.96591826  0.30677550     0.07300
H3590       H  0.02405322  0.99506552  0.32617603     0.08500
H3591       H  0.99732127  0.98888564  0.30167179     0.07500
H3592       H  0.82102971  0.76720362  0.34810646     0.02400
H3593       H  0.83296869  0.73463812  0.32914939     0.02900
H3594       H  0.79704834  0.76174616  0.32288924     0.06400
H3595       H  0.47295345  0.78271442  0.35026881     0.05400
H3596       H  0.96608103  0.82521356  0.33612321    -0.00400
H3597       H  0.91371075  0.75916513  0.33934074     0.01100
H3598       H  0.91546968  0.91751802  0.41165048     0.04700
H3599       H  0.96663583  0.91639780  0.42313364     0.06700
H3600       H  0.90128277  0.86452533  0.42732393     0.07500
C3601       C  0.94138611  0.80416582  0.13483418    -0.22100
C3602       C  0.97554364  0.85706500  0.14066465     0.09900
C3603       C  0.00673948  0.89285408  0.12601126     0.10300
C3604       C  0.00733368  0.87373326  0.10722250    -0.17000
C3605       C  0.97917275  0.82039482  0.10278268    -0.27400
C3606       C  0.94281840  0.78545042  0.11596827     0.18600
C3607       C  0.97849668  0.87229908  0.16212762     0.12600
C3608       C  0.04199938  0.95097187  0.12935961    -0.11800
H3609       H  0.03256550  0.90056304  0.09628594     0.12900
C3610       C  0.40535653  0.73202341  0.10995706    -0.22600
H3611       H  0.91475660  0.77715597  0.14538981     0.08500
C3612       C  0.98611421  0.84659816  0.17789565     0.04900
C3613       C  0.98215495  0.85684984  0.19768346    -0.19800
C3614       C  0.97524698  0.89564788  0.20266457    -0.12100
C3615       C  0.97333492  0.92587694  0.18717630     0.13600
C3616       C  0.97145591  0.91138724  0.16717508    -0.22600
C3617       C  0.99762235  0.80718701  0.17474568    -0.05600
H3618       H  0.98419131  0.83390977  0.20941751     0.15100
C3619       C  0.97441347  0.97413245  0.19066846    -0.15800
H3620       H  0.96480509  0.93119889  0.15544213     0.09400
H3621       H  0.38483521  0.72915332  0.09573275     0.07300
H3622       H  0.37611490  0.71091298  0.12114673     0.08500
H3623       H  0.42534590  0.71257067  0.10791637     0.07500
H3624       H  0.04404866  0.96440021  0.14472383     0.02400
H3625       H  0.02961352  0.97055188  0.11926236     0.02900
H3626       H  0.08115147  0.96409715  0.12582664     0.06400
H3627       H  0.03014821  0.81601344  0.18482860     0.05400
H3628       H  0.00802919  0.80688430  0.15928477    -0.00400
H3629       H  0.96370281  0.76913830  0.17868273     0.01100
H3630       H  0.00999730  0.00781013  0.18487117     0.04700
H3631       H  0.97324915  0.98280409  0.20645186     0.06700
H3632       H  0.94217291  0.97071075  0.18220744     0.07500
C3633       C  0.80366862  0.89439570  0.37447926    -0.22100
C3634       C  0.79560893  0.91160429  0.35632519     0.09900
C3635       C  0.78166624  0.94706545  0.35642415     0.10300
C3636       C  0.77893988  0.96725816  0.37462091    -0.17000
C3637       C  0.78820785  0.95145329  0.39296696    -0.27400
C3638       C  0.79933252  0.91316716  0.39285756     0.18600
C3639       C  0.81183249  0.90176938  0.33742925     0.12600
C3640       C  0.77132071  0.96447155  0.33702694    -0.11800
H3641       H  0.77058936  0.99651176  0.37455625     0.12900
C3642       C  0.80955372  0.89402430  0.41188492    -0.22600
H3643       H  0.81518399  0.86769585  0.37427376     0.08500
C3644       C  0.86120095  0.93828430  0.33131775     0.04900
C3645       C  0.87282613  0.93660983  0.31166797    -0.19800
C3646       C  0.83793947  0.89625641  0.29825023    -0.12100
C3647       C  0.78935799  0.85749216  0.30473229     0.13600
C3648       C  0.77580952  0.86339704  0.32370329    -0.22600
C3649       C  0.90082776  0.98108438  0.34522272    -0.05600
H3650       H  0.91047732  0.96630852  0.30705663     0.15100
C3651       C  0.75197311  0.81026467  0.29194853    -0.15800
H3652       H  0.73704647  0.83832974  0.32781532     0.09400
H3653       H  0.81993919  0.86612846  0.40884383     0.07300
H3654       H  0.77516240  0.87336529  0.42069117     0.08500
H3655       H  0.84117991  0.92706070  0.42094129     0.07500
H3656       H  0.73355846  0.93300931  0.33062690     0.02400
H3657       H  0.79927382  0.97199613  0.32601973     0.02900
H3658       H  0.77430858  0.00131404  0.33895495     0.06400
H3659       H  0.93750834  0.00662673  0.33804611     0.05400
H3660       H  0.90743837  0.96442238  0.35863479    -0.00400
H3661       H  0.88706798  0.00490270  0.34979684     0.01100
H3662       H  0.71628547  0.78396161  0.29959881     0.04700
H3663       H  0.76785523  0.78718918  0.28896163     0.06700
H3664       H  0.74316861  0.82223064  0.27764505     0.07500
C3665       C  0.84919246  0.92957024  0.12622859    -0.22100
C3666       C  0.82207935  0.93136654  0.14177834     0.09900
C3667       C  0.78308450  0.93888920  0.13750303     0.10300
C3668       C  0.76972123  0.94089912  0.11779067    -0.17000
C3669       C  0.79915913  0.94345764  0.10245270    -0.27400
C3670       C  0.83867482  0.93634293  0.10648784     0.18600
C3671       C  0.83448750  0.92509990  0.16236705     0.12600
C3672       C  0.75585180  0.94736205  0.15305153    -0.11800
H3673       H  0.74002523  0.94721411  0.11453379     0.12900
C3674       C  0.87227939  0.93892931  0.09072213    -0.22600
H3675       H  0.88046775  0.92575061  0.12960239     0.08500
C3676       C  0.82367923  0.87716136  0.16885700     0.04900
C3677       C  0.82852092  0.87026460  0.18914166    -0.19800
C3678       C  0.84681635  0.91145955  0.20297056    -0.12100
C3679       C  0.86067714  0.96058571  0.19615146     0.13600
C3680       C  0.85365353  0.96657887  0.17595623    -0.22600
C3681       C  0.80888696  0.83391886  0.15438981    -0.05600
H3682       H  0.82094738  0.83335385  0.19398762     0.15100
C3683       C  0.88491185  0.00744480  0.20974447    -0.15800
H3684       H  0.86245075  0.00354155  0.17071385     0.09400
H3685       H  0.86949801  0.90171560  0.09015568     0.07300
H3686       H  0.91230225  0.97115327  0.09452933     0.08500
H3687       H  0.86200056  0.94558760  0.07562888     0.07500
H3688       H  0.76263729  0.98616339  0.15159405     0.02400
H3689       H  0.76576060  0.94366552  0.16857468     0.02900
H3690       H  0.71538400  0.91849218  0.15016755     0.06400
H3691       H  0.77403524  0.82281971  0.14548543     0.05400
H3692       H  0.80237321  0.79981388  0.16234649    -0.00400
H3693       H  0.84044831  0.84678106  0.14452695     0.01100
H3694       H  0.89151775  0.04106921  0.20159966     0.04700
H3695       H  0.92313547  0.01912471  0.21529601     0.06700
H3696       H  0.86031619  0.99895480  0.22238700     0.07500
C3697       C  0.89106765  0.59175054  0.32863069    -0.22100
C3698       C  0.92195182  0.63007214  0.34316645     0.09900
C3699       C  0.96186654  0.67948244  0.33715909     0.10300
C3700       C  0.96747959  0.69039787  0.31662734    -0.17000
C3701       C  0.93626743  0.65155532  0.30194446    -0.27400
C3702       C  0.89758058  0.60130391  0.30821538     0.18600
C3703       C  0.90761499  0.61721096  0.36426271     0.12600
C3704       C  0.00163635  0.71822282  0.35219054    -0.11800
H3705       H  0.99936158  0.72778307  0.31205856     0.12900
C3706       C  0.86294964  0.55710617  0.29353008    -0.22600
H3707       H  0.86109301  0.55401817  0.33341596     0.08500
C3708       C  0.87503200  0.62858374  0.37259017     0.04900
C3709       C  0.84781331  0.60178877  0.38924544    -0.19800
C3710       C  0.85433748  0.56538850  0.39845501    -0.12100
C3711       C  0.89266614  0.55974064  0.39195424     0.13600
C3712       C  0.91753398  0.58439172  0.37455645    -0.22600
C3713       C  0.86970775  0.66972972  0.36418167    -0.05600
H3714       H  0.82008227  0.60805491  0.39472768     0.15100
C3715       C  0.91349279  0.03237994  0.40365440    -0.15800
H3716       H  0.94299886  0.57585720  0.36864244     0.09400
H3717       H  0.82953896  0.52440971  0.30067939     0.07300
H3718       H  0.88327892  0.54125711  0.28713621     0.08500
H3719       H  0.84847623  0.57063733  0.28145613     0.07500
H3720       H  0.02156949  0.70200606  0.35905101     0.02400
H3721       H  0.98490725  0.72638640  0.36447566     0.02900
H3722       H  0.03018101  0.75504376  0.34509691     0.06400
H3723       H  0.84369456  0.67406406  0.37283651     0.05400
H3724       H  0.85707582  0.66201693  0.34822555    -0.00400
H3725       H  0.90685886  0.70659581  0.36572519     0.01100
H3726       H  0.90609675  0.99892947  0.39447347     0.04700
H3727       H  0.89470062  0.01818153  0.41798551     0.06700
H3728       H  0.95497922  0.05877119  0.40721377     0.07500
C3729       C  0.80900986  0.58059310  0.13639235    -0.22100
C3730       C  0.85091379  0.58494194  0.14627717     0.09900
C3731       C  0.88007800  0.57191153  0.13559539     0.10300
C3732       C  0.86760621  0.55673889  0.11550242    -0.17000
C3733       C  0.82358198  0.54838127  0.10614880    -0.27400
C3734       C  0.79370892  0.56018061  0.11671746     0.18600
C3735       C  0.86736169  0.60820439  0.16688984     0.12600
C3736       C  0.92476484  0.57338295  0.14479322    -0.11800
H3737       H  0.89054386  0.54766936  0.10740095     0.12900
C3738       C  0.74449716  0.54930761  0.10793543    -0.22600
H3739       H  0.78723509  0.59140913  0.14429913     0.08500
C3740       C  0.91501054  0.65525227  0.17008724     0.04900
C3741       C  0.93694711  0.67109350  0.18945260    -0.19800
C3742       C  0.91032291  0.64267646  0.20596426    -0.12100
C3743       C  0.85876180  0.60099296  0.20310544     0.13600
C3744       C  0.83791527  0.58302700  0.18344602    -0.22600
C3745       C  0.94123953  0.68930352  0.15285795    -0.05600
H3746       H  0.97592841  0.70437147  0.19161525     0.15100
C3747       C  0.82692060  0.57498016  0.22077079    -0.15800
H3748       H  0.79980271  0.54847002  0.18107926     0.09400
H3749       H  0.74888311  0.58670460  0.10578366     0.07300
H3750       H  0.71367510  0.52452400  0.11811400     0.08500
H3751       H  0.73279277  0.52863437  0.09327580     0.07500
H3752       H  0.93147798  0.58489093  0.16070604     0.02400
H3753       H  0.95955784  0.60132051  0.13685065     0.02900
H3754       H  0.91798723  0.53438057  0.14355429     0.06400
H3755       H  0.94882289  0.67029427  0.14103924     0.05400
H3756       H  0.97752355  0.72368719  0.15770236    -0.00400
H3757       H  0.91750536  0.70190383  0.14669926     0.01100
H3758       H  0.78741374  0.54314625  0.21604566     0.04700
H3759       H  0.82647039  0.60430384  0.22990220     0.06700
H3760       H  0.84319381  0.55882344  0.23055583     0.07500
C3761       C  0.63238978  0.76347036  0.33228780    -0.22100
C3762       C  0.61319141  0.72041563  0.34461655     0.09900
C3763       C  0.57464119  0.67082437  0.33636295     0.10300
C3764       C  0.56510571  0.66442977  0.31551305    -0.17000
C3765       C  0.58927847  0.70681172  0.30264567    -0.27400
C3766       C  0.62059651  0.75763914  0.31156784     0.18600
C3767       C  0.63854203  0.72798786  0.36498869     0.12600
C3768       C  0.54418417  0.62387282  0.34909938    -0.11800
H3769       H  0.53706125  0.62587611  0.30933022     0.12900
C3770       C  0.64101189  0.80623948  0.29972298    -0.22600
H3771       H  0.65783361  0.80197518  0.33898745     0.08500
C3772       C  0.69151365  0.75015582  0.36748826     0.04900
C3773       C  0.71416463  0.75786022  0.38664781    -0.19800
C3774       C  0.68514521  0.73803574  0.40343237    -0.12100
C3775       C  0.63212481  0.71404113  0.40115188     0.13600
C3776       C  0.60995032  0.71068770  0.38215783    -0.22600
C3777       C  0.72474242  0.75941275  0.35053716    -0.05600
H3778       H  0.75463893  0.77557653  0.38829844     0.15100
C3779       C  0.59730887  0.68963358  0.41821239    -0.15800
H3780       H  0.56961285  0.69267549  0.38096922     0.09400
H3781       H  0.66662488  0.84216312  0.30896876     0.07300
H3782       H  0.60897746  0.80767577  0.29387759     0.08500
H3783       H  0.66224111  0.80655464  0.28701745     0.07500
H3784       H  0.51910468  0.62880630  0.35809771     0.02400
H3785       H  0.56883885  0.61856410  0.35935943     0.02900
H3786       H  0.51981044  0.58762209  0.33992055     0.06400
H3787       H  0.76007007  0.79872700  0.35205868     0.05400
H3788       H  0.70658122  0.75407756  0.33559926    -0.00400
H3789       H  0.73549836  0.73133310  0.35143281     0.01100
H3790       H  0.57714701  0.70885937  0.42033603     0.04700
H3791       H  0.61745411  0.69267806  0.43252682     0.06700
H3792       H  0.56880896  0.64767945  0.41468344     0.07500
C3793       C  0.56668103  0.65454369  0.16809299    -0.22100
C3794       C  0.61781505  0.68999759  0.16398491     0.09900
C3795       C  0.65177372  0.72130146  0.18029331     0.10300
C3796       C  0.63297256  0.72096930  0.19902948    -0.17000
C3797       C  0.58186457  0.68545694  0.20281664    -0.27400
C3798       C  0.54977622  0.64873256  0.18751319     0.18600
C3799       C  0.63397504  0.69596268  0.14263758     0.12600
C3800       C  0.70820761  0.75332798  0.17884497    -0.11800
H3801       H  0.65888511  0.74688762  0.21099918     0.12900
C3802       C  0.49859136  0.60147304  0.19171037    -0.22600
H3803       H  0.53949223  0.63056743  0.15617553     0.08500
C3804       C  0.61799260  0.65326022  0.12928390     0.04900
C3805       C  0.63677287  0.66278380  0.10994599    -0.19800
C3806       C  0.67324762  0.71326700  0.10379677    -0.12100
C3807       C  0.68421090  0.75554256  0.11596974     0.13600
C3808       C  0.66494903  0.74639627  0.13512127    -0.22600
C3809       C  0.58414965  0.59723808  0.13520319    -0.05600
H3810       H  0.62589581  0.63020546  0.10006853     0.15100
C3811       C  0.71632078  0.81048772  0.10896031    -0.15800
H3812       H  0.67579582  0.77939740  0.14452058     0.09400
H3813       H  0.48110388  0.57410363  0.17869571     0.07300
H3814       H  0.47332946  0.61306879  0.19604805     0.08500
H3815       H  0.50283124  0.57976435  0.20380349     0.07500
H3816       H  0.71904768  0.74365480  0.16498491     0.02400
H3817       H  0.72600266  0.74495716  0.19146671     0.02900
H3818       H  0.72317427  0.79513793  0.17951818     0.06400
H3819       H  0.59321001  0.57274058  0.12698010     0.05400
H3820       H  0.54388640  0.58218472  0.13134778    -0.00400
H3821       H  0.58916363  0.59244570  0.15131455     0.01100
H3822       H  0.72112585  0.83818003  0.12064146     0.04700
H3823       H  0.69757385  0.81512811  0.09563400     0.06700
H3824       H  0.75437424  0.82079874  0.10524291     0.07500
C3825       C  0.90766733  0.77113426  0.82862995    -0.22100
C3826       C  0.86022301  0.75931783  0.83341086     0.09900
C3827       C  0.82310425  0.74356177  0.81735547     0.10300
C3828       C  0.83761153  0.74841380  0.79748432    -0.17000
C3829       C  0.88509324  0.75936390  0.79312514    -0.27400
C3830       C  0.91855881  0.76613475  0.80915545     0.18600
C3831       C  0.85292964  0.76478939  0.85514454     0.12600
C3832       C  0.76774395  0.71883292  0.81997975    -0.11800
H3833       H  0.81092255  0.74150424  0.78529903     0.12900
C3834       C  0.96582926  0.76768560  0.80673177    -0.22600
H3835       H  0.93602779  0.78232450  0.84046619     0.08500
C3836       C  0.81854438  0.72239420  0.86675258     0.04900
C3837       C  0.81231872  0.73046898  0.88673535    -0.19800
C3838       C  0.83849729  0.78054118  0.89535193    -0.12100
C3839       C  0.87839707  0.82197369  0.88495132     0.13600
C3840       C  0.88643387  0.81282408  0.86535781    -0.22600
C3841       C  0.78887306  0.66783462  0.85889767    -0.05600
H3842       H  0.78411155  0.69774900  0.89519461     0.15100
C3843       C  0.91277129  0.87586592  0.89414493    -0.15800
H3844       H  0.91877862  0.84380487  0.85794036     0.09400
H3845       H  0.96139194  0.73337953  0.81382794     0.07300
H3846       H  0.99789713  0.80305759  0.81439116     0.08500
H3847       H  0.97473835  0.76634566  0.79123360     0.07500
H3848       H  0.75834480  0.71192219  0.83564445     0.02400
H3849       H  0.74579027  0.68018150  0.81221117     0.02900
H3850       H  0.75549074  0.74281081  0.81330328     0.06400
H3851       H  0.74804658  0.65139319  0.86022538     0.05400
H3852       H  0.80049556  0.64630179  0.86798986    -0.00400
H3853       H  0.79517315  0.66378996  0.84313806     0.01100
H3854       H  0.95234449  0.88664115  0.89529471     0.04700
H3855       H  0.90220887  0.87882659  0.90937306     0.06700
H3856       H  0.91138139  0.90440373  0.88470475     0.07500
C3857       C  0.60580456  0.86857580  0.81987962    -0.22100
C3858       C  0.59221902  0.89411147  0.83285669     0.09900
C3859       C  0.56278902  0.91155277  0.82430012     0.10300
C3860       C  0.54635110  0.90099085  0.80412874    -0.17000
C3861       C  0.55767580  0.87319779  0.79157032    -0.27400
C3862       C  0.58862303  0.85732175  0.79962133     0.18600
C3863       C  0.61063161  0.90217957  0.85475455     0.12600
C3864       C  0.54780428  0.94202899  0.83554693    -0.11800
H3865       H  0.52246345  0.91325150  0.79838960     0.12900
C3866       C  0.60224275  0.82663780  0.78742034    -0.22600
H3867       H  0.62799504  0.85462092  0.82587740     0.08500
C3868       C  0.57914305  0.89049758  0.87125132     0.04900
C3869       C  0.60081812  0.90328619  0.89092779    -0.19800
C3870       C  0.65192079  0.92201095  0.89510277    -0.12100
C3871       C  0.68043224  0.92397998  0.87909914     0.13600
C3872       C  0.66070974  0.91696302  0.85930777    -0.22600
C3873       C  0.52247303  0.86315577  0.86900092    -0.05600
H3874       H  0.57777568  0.89953605  0.90312071     0.15100
C3875       C  0.73172388  0.44066748  0.88403059    -0.15800
H3876       H  0.68513764  0.92314593  0.84730865     0.09400
H3877       H  0.56788682  0.78745818  0.78346831     0.07300
H3878       H  0.62893776  0.82055524  0.79593866     0.08500
H3879       H  0.62063967  0.84778680  0.77369708     0.07500
H3880       H  0.56708276  0.95368366  0.85033258     0.02400
H3881       H  0.50605387  0.91850249  0.83700400     0.02900
H3882       H  0.55854033  0.97773578  0.82745336     0.06400
H3883       H  0.50347277  0.82821499  0.87835091     0.05400
H3884       H  0.50781251  0.84990014  0.85349200    -0.00400
H3885       H  0.51192274  0.88963079  0.87400748     0.01100
H3886       H  0.74336142  0.44506225  0.90009799     0.04700
H3887       H  0.76004406  0.47642356  0.87626693     0.06700
H3888       H  0.73152535  0.40748016  0.87785347     0.07500
C3889       C  0.56770421  0.91268271  0.66517423    -0.22100
C3890       C  0.60446055  0.90145911  0.66268965     0.09900
C3891       C  0.62112387  0.88791345  0.68022513     0.10300
C3892       C  0.59248359  0.87344648  0.69726313    -0.17000
C3893       C  0.55106369  0.87709649  0.69842163    -0.27400
C3894       C  0.53986074  0.89943888  0.68250020     0.18600
C3895       C  0.62239835  0.90338741  0.64181322     0.12600
C3896       C  0.67034026  0.89203081  0.68256734    -0.11800
H3897       H  0.60310833  0.85987703  0.71015222     0.12900
C3898       C  0.49688708  0.90653758  0.68305565    -0.22600
H3899       H  0.55901420  0.92994386  0.65306961     0.08500
C3900       C  0.58901193  0.88842612  0.62440055     0.04900
C3901       C  0.60895381  0.90081119  0.60540777    -0.19800
C3902       C  0.66023659  0.92281368  0.60300137    -0.12100
C3903       C  0.69069474  0.92639070  0.61928977     0.13600
C3904       C  0.67314976  0.92087628  0.63852352    -0.22600
C3905       C  0.53218083  0.85904950  0.62468131    -0.05600
H3906       H  0.58470512  0.89510274  0.59245117     0.15100
C3907       C  0.73714879  0.43578868  0.61541091    -0.15800
H3908       H  0.70126705  0.93391573  0.65037333     0.09400
H3909       H  0.49221477  0.92241216  0.66892384     0.07300
H3910       H  0.50446105  0.93418339  0.69536176     0.08500
H3911       H  0.46065888  0.86848431  0.68530010     0.07500
H3912       H  0.70268997  0.93330914  0.68172968     0.02400
H3913       H  0.67214126  0.86671823  0.67159842     0.02900
H3914       H  0.67554659  0.88091477  0.69762145     0.06400
H3915       H  0.51470684  0.82532883  0.61400979     0.05400
H3916       H  0.52017371  0.88497131  0.61997461    -0.00400
H3917       H  0.51695070  0.84250451  0.63931492     0.01100
H3918       H  0.76398627  0.47511844  0.60960695     0.04700
H3919       H  0.73134625  0.40640415  0.60424627     0.06700
H3920       H  0.75356198  0.43062268  0.62918874     0.07500
C3921       C  0.81644238  0.69587360  0.66641383    -0.22100
C3922       C  0.83259030  0.73837691  0.65378038     0.09900
C3923       C  0.85877721  0.78796643  0.66325571     0.10300
C3924       C  0.87286649  0.79471576  0.68353061    -0.17000
C3925       C  0.86190598  0.75359390  0.69556866    -0.27400
C3926       C  0.83158704  0.70270864  0.68706659     0.18600
C3927       C  0.82009721  0.73099148  0.63133331     0.12600
C3928       C  0.86985518  0.83552461  0.65335259    -0.11800
H3929       H  0.89309327  0.83358108  0.69004221     0.12900
C3930       C  0.81329896  0.65548325  0.69946172    -0.22600
H3931       H  0.79295337  0.65741616  0.65998946     0.08500
C3932       C  0.85497978  0.76504956  0.61710486     0.04900
C3933       C  0.83755799  0.76695130  0.59780350    -0.19800
C3934       C  0.78679842  0.73253434  0.59153830    -0.12100
C3935       C  0.75446553  0.69140497  0.60398619     0.13600
C3936       C  0.77145635  0.69084920  0.62372326    -0.22600
C3937       C  0.91095719  0.79983321  0.62138739    -0.05600
H3938       H  0.86355909  0.79657762  0.58773513     0.15100
C3939       C  0.70123578  0.65048764  0.59667366    -0.15800
H3940       H  0.74599028  0.66033922  0.63336205     0.09400
H3941       H  0.82866585  0.63359939  0.69394301     0.07300
H3942       H  0.77116344  0.63034189  0.69843128     0.08500
H3943       H  0.82479766  0.66532914  0.71548476     0.07500
H3944       H  0.85184421  0.82889333  0.63830006     0.02400
H3945       H  0.91160027  0.86421311  0.65310480     0.02900
H3946       H  0.85353386  0.85060130  0.66283326     0.06400
H3947       H  0.92454852  0.84090395  0.61874408     0.05400
H3948       H  0.92879833  0.78793868  0.61091925    -0.00400
H3949       H  0.92262323  0.79697172  0.63679139     0.01100
H3950       H  0.67867193  0.62507617  0.60878098     0.04700
H3951       H  0.70184987  0.62661766  0.58456232     0.06700
H3952       H  0.68210827  0.66882011  0.59083285     0.07500
C3953       C  0.50792263  0.66130041  0.81928116    -0.22100
C3954       C  0.54538452  0.68547107  0.83480449     0.09900
C3955       C  0.59632433  0.71284242  0.82999445     0.10300
C3956       C  0.60886429  0.70404593  0.81136193    -0.17000
C3957       C  0.57094845  0.67327853  0.79650454    -0.27400
C3958       C  0.52069698  0.65719560  0.79984915     0.18600
C3959       C  0.53246454  0.68755095  0.85561141     0.12600
C3960       C  0.63769733  0.75187234  0.84431031    -0.11800
H3961       H  0.64822510  0.71971098  0.80879744     0.12900
C3962       C  0.48228172  0.64048134  0.78275381    -0.22600
H3963       H  0.46913495  0.64650874  0.82222624     0.08500
C3964       C  0.52783299  0.72755818  0.86205733     0.04900
C3965       C  0.52244598  0.73336502  0.88222895    -0.19800
C3966       C  0.52142037  0.69971473  0.89626169    -0.12100
C3967       C  0.53129620  0.66282769  0.89033644     0.13600
C3968       C  0.53725182  0.65761448  0.87006543    -0.22600
C3969       C  0.53280147  0.76747293  0.84830651    -0.05600
H3970       H  0.51664372  0.76285989  0.88695130     0.15100
C3971       C  0.53648987  0.62924138  0.90499030    -0.15800
H3972       H  0.54646579  0.63058711  0.86562738     0.09400
H3973       H  0.44573367  0.63208612  0.78782107     0.07300
H3974       H  0.47519419  0.60553755  0.77508099     0.08500
H3975       H  0.49697564  0.67227791  0.77189056     0.07500
H3976       H  0.62525238  0.75517386  0.85903650     0.02400
H3977       H  0.65733487  0.79106238  0.83790343     0.02900
H3978       H  0.66274761  0.73909334  0.84692837     0.06400
H3979       H  0.56693999  0.80481264  0.85350787     0.05400
H3980       H  0.49894831  0.76844694  0.84903136    -0.00400
H3981       H  0.53802905  0.76119188  0.83265954     0.01100
H3982       H  0.50722832  0.58761205  0.90124511     0.04700
H3983       H  0.53245372  0.63752434  0.92060452     0.06700
H3984       H  0.57465002  0.63645767  0.90408764     0.07500
C3985       C  0.70866122  0.55393650  0.86843226    -0.22100
C3986       C  0.66267568  0.54832354  0.86336871     0.09900
C3987       C  0.62736954  0.53523257  0.87850774     0.10300
C3988       C  0.63870640  0.52559757  0.89766598    -0.17000
C3989       C  0.68469052  0.53122250  0.90213406    -0.27400
C3990       C  0.72187153  0.55041958  0.88804014     0.18600
C3991       C  0.65498205  0.55721875  0.84220174     0.12600
C3992       C  0.57670355  0.52837362  0.87532043    -0.11800
H3993       H  0.61777890  0.01087592  0.90681451     0.12900
C3994       C  0.77508133  0.56643298  0.89377653    -0.22600
H3995       H  0.73545739  0.56322408  0.85703914     0.08500
C3996       C  0.64481391  0.59433238  0.83648130     0.04900
C3997       C  0.63886061  0.60099415  0.81636626    -0.19800
C3998       C  0.64520031  0.57379964  0.80170175    -0.12100
C3999       C  0.65773124  0.53868611  0.80687343     0.13600
C4000       C  0.66328833  0.53123681  0.82718041    -0.22600
C4001       C  0.64269484  0.63003788  0.85069346    -0.05600
H4002       H  0.63017036  0.62880431  0.81202305     0.15100
C4003       C  0.66535997  0.50991996  0.79102275    -0.15800
H4004       H  0.67374288  0.50471637  0.83134390     0.09400
H4005       H  0.79411006  0.60202580  0.90349366     0.07300
H4006       H  0.79739275  0.57467310  0.88041911     0.08500
H4007       H  0.77535346  0.53587401  0.90210354     0.07500
H4008       H  0.56802975  0.53288542  0.85965812     0.02400
H4009       H  0.57607715  0.55731361  0.88474059     0.02900
H4010       H  0.55088523  0.98726210  0.87827674     0.06400
H4011       H  0.67163231  0.67052161  0.84674757     0.05400
H4012       H  0.65054863  0.62513542  0.86636189    -0.00400
H4013       H  0.60480201  0.62358366  0.84917854     0.01100
H4014       H  0.67449316  0.48321179  0.79762849     0.04700
H4015       H  0.69685572  0.53815662  0.78166413     0.06700
H4016       H  0.63034837  0.48671615  0.78127608     0.07500
C4017       C  0.64434630  0.53670744  0.62933902    -0.22100
C4018       C  0.68014624  0.55020266  0.64523766     0.09900
C4019       C  0.72567971  0.55491196  0.64108539     0.10300
C4020       C  0.73545078  0.54883366  0.62133455    -0.17000
C4021       C  0.69927596  0.53410166  0.60554675    -0.27400
C4022       C  0.65317387  0.52843516  0.60969277     0.18600
C4023       C  0.66881918  0.55804412  0.66601300     0.12600
C4024       C  0.76221542  0.56108391  0.65747199    -0.11800
H4025       H  0.77019131  0.55202364  0.61841972     0.12900
C4026       C  0.61243450  0.51362717  0.59365027    -0.22600
H4027       H  0.60881699  0.53195380  0.63230441     0.08500
C4028       C  0.66343798  0.59891405  0.67097924     0.04900
C4029       C  0.65554070  0.60619308  0.69064200    -0.19800
C4030       C  0.65142756  0.57338912  0.70573594    -0.12100
C4031       C  0.65788316  0.53341269  0.70140011     0.13600
C4032       C  0.66679637  0.52636054  0.68161464    -0.22600
C4033       C  0.67077768  0.63936329  0.65676694    -0.05600
H4034       H  0.65238343  0.63822260  0.69427197     0.15100
C4035       C  0.65794400  0.50046644  0.71779608    -0.15800
H4036       H  0.67405856  0.49721199  0.67844301     0.09400
H4037       H  0.60521224  0.54451503  0.59255156     0.07300
H4038       H  0.57128950  0.96632396  0.59619972     0.08500
H4039       H  0.62298391  0.50839321  0.57874790     0.07500
H4040       H  0.75441030  0.52248570  0.66074791     0.02400
H4041       H  0.75860898  0.57666548  0.67148485     0.02900
H4042       H  0.80167572  0.58824636  0.65305729     0.06400
H4043       H  0.64316612  0.64926928  0.65946548     0.05400
H4044       H  0.66527372  0.62670653  0.64105135    -0.00400
H4045       H  0.70933827  0.67483829  0.65987877     0.01100
H4046       H  0.62018205  0.47788802  0.72442599     0.04700
H4047       H  0.68726586  0.52577977  0.72958701     0.06700
H4048       H  0.66691281  0.47311459  0.71222479     0.07500
C4049       C  0.59048161  0.67364810  0.62672377    -0.22100
C4050       C  0.58167759  0.70079448  0.64089980     0.09900
C4051       C  0.57079117  0.73671344  0.63376561     0.10300
C4052       C  0.56088681  0.73761168  0.61330783    -0.17000
C4053       C  0.55820046  0.70146055  0.60011035    -0.27400
C4054       C  0.57679740  0.67185894  0.60646017     0.18600
C4055       C  0.57921012  0.68733279  0.66252749     0.12600
C4056       C  0.56630115  0.77228969  0.64721274    -0.11800
H4057       H  0.54942141  0.76254468  0.60784958     0.12900
C4058       C  0.57891618  0.63593340  0.59218608    -0.22600
H4059       H  0.60230457  0.64885227  0.63164209     0.08500
C4060       C  0.55143275  0.63491516  0.66899039     0.04900
C4061       C  0.55272856  0.62506194  0.68923667    -0.19800
C4062       C  0.57873876  0.66540836  0.70353242    -0.12100
C4063       C  0.60237175  0.71706226  0.69762518     0.13600
C4064       C  0.60453075  0.72745260  0.67721478    -0.22600
C4065       C  0.51996449  0.58737124  0.65555129    -0.05600
H4066       H  0.53427522  0.58505902  0.69380565     0.15100
C4067       C  0.62346892  0.76082541  0.71287762    -0.15800
H4068       H  0.62707173  0.76733053  0.67285729     0.09400
H4069       H  0.59219076  0.61376362  0.59987932     0.07300
H4070       H  0.60527673  0.65893615  0.58030406     0.08500
H4071       H  0.54083885  0.60752993  0.58512516     0.07500
H4072       H  0.60445373  0.80471452  0.65260651     0.02400
H4073       H  0.54187222  0.75124211  0.65975709     0.02900
H4074       H  0.99747484  0.75353869  0.64368244     0.06400
H4075       H  0.48160674  0.56209684  0.66152575     0.05400
H4076       H  0.53770597  0.56522879  0.65543894    -0.00400
H4077       H  0.51467766  0.59580489  0.64008491     0.01100
H4078       H  0.65847795  0.76833044  0.72057881     0.04700
H4079       H  0.59498863  0.75107563  0.72412063     0.06700
H4080       H  0.63238245  0.79694956  0.70579965     0.07500
C4081       C  0.88054442  0.55851314  0.87894345    -0.22100
C4082       C  0.88177935  0.58595341  0.86207430     0.09900
C4083       C  0.89178067  0.63600252  0.86505765     0.10300
C4084       C  0.90420084  0.65836222  0.88426227    -0.17000
C4085       C  0.90998109  0.63331257  0.90026327    -0.27400
C4086       C  0.89417156  0.58139407  0.89805191     0.18600
C4087       C  0.87313304  0.56320998  0.84152942     0.12600
C4088       C  0.89438098  0.66860180  0.84811949    -0.11800
H4089       H  0.91518890  0.69802341  0.88649316     0.12900
C4090       C  0.89306161  0.55079872  0.91569813    -0.22600
H4091       H  0.87249306  0.52064399  0.87739997     0.08500
C4092       C  0.90624503  0.55233144  0.83299069     0.04900
C4093       C  0.90189241  0.54194902  0.81243070    -0.19800
C4094       C  0.86572188  0.54226449  0.79989552    -0.12100
C4095       C  0.83037155  0.54955610  0.80869993     0.13600
C4096       C  0.83360229  0.55799817  0.82940668    -0.22600
C4097       C  0.94728865  0.55182626  0.84458518    -0.05600
H4098       H  0.92760439  0.53378802  0.80616931     0.15100
C4099       C  0.78979840  0.54996726  0.79661758    -0.15800
H4100       H  0.80612926  0.56279660  0.83616470     0.09400
H4101       H  0.87998595  0.51054804  0.91122966     0.07300
H4102       H  0.86643773  0.54824009  0.92655902     0.08500
H4103       H  0.93138457  0.57006458  0.92312981     0.07500
H4104       H  0.85761136  0.65043741  0.83968353     0.02400
H4105       H  0.92361284  0.67499604  0.83804013     0.02900
H4106       H  0.40210011  0.69611508  0.85380412     0.06400
H4107       H  0.98422835  0.57893561  0.83787135     0.05400
H4108       H  0.93979401  0.51265955  0.84354154    -0.00400
H4109       H  0.95044223  0.56202688  0.86052998     0.01100
H4110       H  0.76166511  0.51068898  0.78999589     0.04700
H4111       H  0.80717589  0.57900434  0.78470029     0.06700
H4112       H  0.76901876  0.56077726  0.80598898     0.07500
C4113       C  0.75609303  0.79008673  0.85729227    -0.22100
C4114       C  0.78954512  0.83991493  0.85002789     0.09900
C4115       C  0.81130024  0.88194320  0.86394151     0.10300
C4116       C  0.80721870  0.87273053  0.88466824    -0.17000
C4117       C  0.77736747  0.82188874  0.89172216    -0.27400
C4118       C  0.74724549  0.78095639  0.87773770     0.18600
C4119       C  0.79821385  0.84724546  0.82790381     0.12600
C4120       C  0.83886970  0.93669094  0.85723861    -0.11800
H4121       H  0.82906581  0.90507520  0.89525118     0.12900
C4122       C  0.70762732  0.72699753  0.88442011    -0.22600
H4123       H  0.73649723  0.75820238  0.84685272     0.08500
C4124       C  0.84708355  0.87344516  0.81983803     0.04900
C4125       C  0.85244081  0.88334870  0.79938177    -0.19800
C4126       C  0.81108127  0.87108712  0.78656836    -0.12100
C4127       C  0.76181193  0.84054133  0.79402389     0.13600
C4128       C  0.75623621  0.82877703  0.81443395    -0.22600
C4129       C  0.89542767  0.89457029  0.83210090    -0.05600
H4130       H  0.89047095  0.90575629  0.79390126     0.15100
C4131       C  0.71489698  0.82103794  0.78075004    -0.15800
H4132       H  0.71882154  0.80684253  0.81999686     0.09400
H4133       H  0.71694304  0.69967728  0.87942369     0.07300
H4134       H  0.66963317  0.71445561  0.87812433     0.08500
H4135       H  0.70481731  0.72453016  0.90084609     0.07500
H4136       H  0.83910586  0.94037999  0.84084254     0.02400
H4137       H  0.87859463  0.95776834  0.86332120     0.02900
H4138       H  0.81916451  0.95401854  0.86263019     0.06400
H4139       H  0.92219876  0.93652192  0.82928585     0.05400
H4140       H  0.91324845  0.87437919  0.82747362    -0.00400
H4141       H  0.88954100  0.89067020  0.84820547     0.01100
H4142       H  0.68006893  0.79159348  0.78822756     0.04700
H4143       H  0.71654729  0.80239411  0.76697861     0.06700
H4144       H  0.71114918  0.85342991  0.77687205     0.07500
C4145       C  0.92815825  0.58956673  0.62785298    -0.22100
C4146       C  0.91607546  0.61728391  0.64002597     0.09900
C4147       C  0.91176966  0.65591220  0.63119348     0.10300
C4148       C  0.92593198  0.67019686  0.61143428    -0.17000
C4149       C  0.94304991  0.64552468  0.60012684    -0.27400
C4150       C  0.94113311  0.60258340  0.60806041     0.18600
C4151       C  0.90444003  0.60228008  0.66132224     0.12600
C4152       C  0.88985115  0.68061141  0.64180507    -0.11800
H4153       H  0.92514038  0.70178873  0.60504764     0.12900
C4154       C  0.95227091  0.56953043  0.59607728    -0.22600
H4155       H  0.92731022  0.55712974  0.63374119     0.08500
C4156       C  0.86217286  0.55297791  0.66609271     0.04900
C4157       C  0.85101137  0.54051252  0.68608174    -0.19800
C4158       C  0.88261973  0.57484185  0.70173929    -0.12100
C4159       C  0.92470885  0.62457257  0.69721742     0.13600
C4160       C  0.93482816  0.63791139  0.67702490    -0.22600
C4161       C  0.82800272  0.51329514  0.65015987    -0.05600
H4162       H  0.81859403  0.50219773  0.68952621     0.15100
C4163       C  0.95743019  0.66376686  0.71360128    -0.15800
H4164       H  0.96664152  0.67595703  0.67349665     0.09400
H4165       H  0.91916176  0.52848359  0.59614068     0.07300
H4166       H  0.46884852  0.55261012  0.60581439     0.08500
H4167       H  0.44801478  0.56802061  0.58318260     0.07500
H4168       H  0.91656931  0.72323927  0.64226027     0.02400
H4169       H  0.88090896  0.66805893  0.65736278     0.02900
H4170       H  0.85432100  0.66970985  0.63349542     0.06400
H4171       H  0.79449243  0.47891177  0.65668772     0.05400
H4172       H  0.84800244  0.49993970  0.64208630    -0.00400
H4173       H  0.81516462  0.53014572  0.63901148     0.01100
H4174       H  0.97647978  0.64957255  0.72299496     0.04700
H4175       H  0.93352011  0.67007762  0.72307563     0.06700
H4176       H  0.98695223  0.70178609  0.70748111     0.07500
C4177       C  0.76934097  0.87541646  0.66270097    -0.22100
C4178       C  0.80893593  0.89463314  0.64958583     0.09900
C4179       C  0.85968879  0.93091863  0.65746208     0.10300
C4180       C  0.86809315  0.94267086  0.67818777    -0.17000
C4181       C  0.82823789  0.91621439  0.69127851    -0.27400
C4182       C  0.77904845  0.87953920  0.68330526     0.18600
C4183       C  0.79566805  0.86840614  0.62922944     0.12600
C4184       C  0.90568350  0.95363192  0.64498144    -0.11800
H4185       H  0.90604989  0.97172964  0.68420593     0.12900
C4186       C  0.73859048  0.83927178  0.69625574    -0.22600
H4187       H  0.73042966  0.85072525  0.65690512     0.08500
C4188       C  0.75850827  0.81376288  0.62651562     0.04900
C4189       C  0.74480661  0.79150160  0.60733899    -0.19800
C4190       C  0.77304526  0.81872831  0.59104690    -0.12100
C4191       C  0.81066120  0.87258658  0.59339355     0.13600
C4192       C  0.81927505  0.89720529  0.61216530    -0.22600
C4193       C  0.73578622  0.77586626  0.64329585    -0.05600
H4194       H  0.71448274  0.75073008  0.60538276     0.15100
C4195       C  0.84284687  0.90381068  0.57641036    -0.15800
H4196       H  0.84477983  0.93898888  0.61335998     0.09400
H4197       H  0.70537713  0.80888622  0.68707985     0.07300
H4198       H  0.72587951  0.85638451  0.70678987     0.08500
H4199       H  0.75350651  0.81972311  0.70488283     0.07500
H4200       H  0.90867440  0.98334114  0.63511565     0.02400
H4201       H  0.90384550  0.92364110  0.63543866     0.02900
H4202       H  0.94133809  0.97215703  0.65444769     0.06400
H4203       H  0.73097289  0.73911583  0.63887373     0.05400
H4204       H  0.69762056  0.76661805  0.64629910    -0.00400
H4205       H  0.76070186  0.78964477  0.65706083     0.01100
H4206       H  0.81893643  0.90482664  0.56420582     0.04700
H4207       H  0.86224607  0.88616878  0.57069591     0.06700
H4208       H  0.87251001  0.94454876  0.58118702     0.07500
loop_ 
_geom_bond_atom_site_label_1 
_geom_bond_atom_site_label_2 
_geom_bond_distance 
_geom_bond_site_symmetry_2 
_ccdc_geom_bond_type 
O1           Ni7   1.962   1_556  S
O1           C22   1.291       .  A
O2          Ni25   1.991       .  S
O2           C11   1.327       .  A
O3           Ni7   1.820       .  S
O3          Ni25   1.876       .  S
O3          Ni19   1.874   1_554  S
O3           H26   0.967   1_554  S
C4           O21   1.321       .  A
C4           O13   1.300       .  A
C4          C128   1.558       .  S
O5          Ni24   1.940   1_554  S
O5           C11   1.288       .  A
O6          Ni24   1.972       .  S
O6            C8   1.284       .  A
Ni7          O10   2.011       .  S
Ni7          O12   1.945       .  S
C8           O18   1.284       .  A
C8          C136   1.530       .  S
O9          Ni25   1.991       .  S
O9           C15   1.305       .  A
O10          C15   1.312       .  A
C11         C246   1.509       .  S
O12          C14   1.271       .  A
O13         Ni24   2.001       .  S
C14          O20   1.314       .  A
C14         C261   1.554       .  S
C15         C278   1.535       .  S
H16          O17   0.965       .  S
O17         Ni25   1.873   1_556  S
O17         Ni19   1.835       .  S
O17         Ni24   1.838       .  S
O18         Ni19   1.981       .  S
Ni19         O23   1.948       .  S
Ni19         O21   1.991       .  S
O20         Ni25   2.008       .  S
C22          O23   1.304       .  A
C22         C112   1.506       .  S
O27         Ni33   1.897       .  S
O27          C48   1.274       .  A
O28         Ni51   1.980       .  S
O28          C37   1.305       .  A
O29         Ni33   1.923       .  S
O29         Ni51   1.889       .  S
O29         Ni45   1.861       .  S
O29          H52   0.967       .  S
C30          O47   1.307       .  A
C30          O39   1.289       .  A
C30         C269   1.526       .  S
O31         Ni50   1.938       .  S
O31          C37   1.282       .  A
O32         Ni50   1.938       .  S
O32          C34   1.270       .  A
Ni33         O36   1.943       .  S
Ni33         O38   1.950       .  S
C34          O44   1.302       .  A
C34         C253   1.545       .  S
O35         Ni51   2.004       .  S
O35          C41   1.321       .  A
O36          C41   1.288       .  A
C37         C119   1.516       .  S
O38          C40   1.264       .  A
O39         Ni50   1.969       .  S
C40          O46   1.267       .  A
C40          C96   1.520       .  S
C41         C104   1.533       .  S
H42          O43   0.967       .  S
O43         Ni51   1.938       .  S
O43         Ni45   1.904       .  S
O43         Ni50   1.891       .  S
O44         Ni45   2.009       .  S
Ni45         O49   2.027       .  S
Ni45         O47   1.985       .  S
O46         Ni51   1.951       .  S
C48          O49   1.327       .  A
C48         C223   1.531       .  S
O53       Ni1113   1.896   1_545  S
O53          C63   1.275       .  A
O54         Ni61   1.898       .  S
O54          C64   1.279       .  A
O55         Ni61   1.918       .  S
O55          C65   1.280       .  A
O56       Ni1113   1.907   1_545  S
O56          C66   1.280       .  A
O57       Ni1114   1.921   1_545  S
O57          C66   1.281       .  A
O58         Ni62   1.919       .  S
O58          C65   1.284       .  A
O59         Ni62   1.924       .  S
O59          C64   1.281       .  A
O60       Ni1114   1.919   1_545  S
O60          C63   1.285       .  A
Ni61       O1105   1.899       .  S
Ni61       O1108   1.912       .  S
Ni61        Ni62   2.382       .  S
Ni62       O1109   1.927       .  S
Ni62       O1112   1.921       .  S
C63         C938   1.489       .  S
C64        C1025   1.480       .  S
C65         C970   1.496       .  S
C66        C1002   1.476       .  S
O67         Ni75   1.925       .  S
O67          C77   1.282       .  A
O68         Ni75   1.934       .  S
O68          C78   1.285       .  A
O69         Ni75   1.911       .  S
O69          C79   1.280       .  A
O70         Ni75   1.913       .  S
O70          C80   1.279       .  A
O71         Ni76   1.898       .  S
O71          C80   1.277       .  A
O72         Ni76   1.895       .  S
O72          C79   1.279       .  A
O73         Ni76   1.916       .  S
O73          C78   1.281       .  A
O74         Ni76   1.908       .  S
O74          C77   1.279       .  A
Ni75        Ni76   2.392       .  S
C77         C874   1.469       .  S
C78         C801   1.489       .  S
C79         C906   1.468       .  S
C80         C842   1.454       .  S
O81       Ni2193   1.913   1_455  S
O81          C91   1.281       .  A
O82         Ni89   1.909       .  S
O82          C92   1.283       .  A
O83         Ni89   1.917       .  S
O83          C93   1.281       .  A
O84       Ni2193   1.921       .  S
O84          C94   1.280   1_655  A
O85       Ni2194   1.904   1_455  S
O85          C94   1.281       .  A
O86         Ni90   1.915       .  S
O86          C93   1.280       .  A
O87         Ni90   1.919       .  S
O87          C92   1.279       .  A
O88       Ni2194   1.923   1_455  S
O88          C91   1.282       .  A
Ni89       O2185   1.916       .  S
Ni89       O2188   1.924       .  S
Ni89        Ni90   2.384       .  S
Ni90       O2189   1.906       .  S
Ni90       O2192   1.922       .  S
C91         C705   1.491       .  S
C92         C769   1.492       .  S
C93         C673   1.475       .  S
C94         C737   1.480       .  S
C95         C157   1.523       .  S
C95         C100   1.416       .  A
C95        C2200   1.475   1_455  A
C96          C97   1.415       .  A
C96        C2199   1.478       .  A
C97          C98   1.391       .  A
C97         H102   1.087       .  S
C98         C993   1.484       .  S
C98        C2203   1.402       .  A
C99         C897   1.479       .  S
C99         C100   1.394       .  A
C99        C2202   1.404   1_455  A
C100        H101   1.087       .  S
C103        C153   1.539       .  S
C103        C108   1.411       .  A
C103       C1156   1.485       .  A
C104        C105   1.426       .  A
C104       C1155   1.480   1_545  A
C105        C106   1.399       .  A
C105        H110   1.083       .  S
C106        C865   1.502       .  S
C106       C1159   1.402   1_545  A
C107        C746   1.470       .  S
C107        C108   1.390       .  A
C107       C1158   1.403       .  A
C108        H109   1.084       .  S
C111        C179   1.519       .  S
C111        C112   1.455       .  A
C111        C116   1.425       .  A
C112        C113   1.411       .  A
C113        C114   1.389       .  A
C113        H118   1.086       .  S
C114        C682   1.493       .  S
C114        C115   1.411       .  A
C115        C961   1.494       .  S
C115        C116   1.410       .  A
C116        H117   1.084       .  S
C119        C120   1.466       .  A
C119        C124   1.416       .  A
C120        C156   1.519       .  S
C120        C121   1.403       .  A
C121        C122   1.396       .  A
C121        H126   1.085       .  S
C122       C1034   1.483       .  S
C122        C123   1.414       .  A
C123        C778   1.501       .  S
C123        C124   1.401       .  A
C124        H125   1.086       .  S
C127        C182   1.526       .  S
C127        C132   1.425       .  A
C127       C1180   1.486       .  A
C128        C129   1.414       .  A
C128       C1179   1.493   1_545  A
C129        C130   1.389       .  A
C129        H134   1.084       .  S
C130        C833   1.463       .  S
C130       C1183   1.398   1_545  A
C131        C714   1.501       .  S
C131        C132   1.394       .  A
C131       C1182   1.398       .  A
C132        H133   1.086       .  S
C135        C183   1.543       .  S
C135        C140   1.423       .  A
C135       C2240   1.498   1_455  A
C136        C137   1.411       .  A
C136       C2239   1.494       .  A
C137        C138   1.381       .  A
C137        H142   1.089       .  S
C138        C929   1.470       .  S
C138       C2243   1.396       .  A
C139        C810   1.492       .  S
C139        C140   1.393       .  A
C139       C2242   1.397   1_455  A
C140        H141   1.085       .  S
O143       Ni149   1.970       .  S
O143        C164   1.296       .  A
O144       Ni167   2.030       .  S
O144        C153   1.328       .  A
O145       Ni149   1.811       .  S
O145       Ni167   1.908       .  S
O145       Ni161   1.901       .  S
O145        H168   0.963       .  S
C146        O163   1.320       .  A
C146        O155   1.295       .  A
C146        C224   1.546       .  S
O147       Ni166   1.916       .  S
O147        C153   1.279       .  A
O148       Ni166   1.945       .  S
O148        C150   1.265       .  A
Ni149       O152   2.024       .  S
Ni149       O154   1.936       .  S
C150        O160   1.279       .  A
C150        C270   1.531       .  S
O151       Ni167   1.960       .  S
O151        C157   1.320       .  A
O152        C157   1.319       .  A
O154        C156   1.275       .  A
O155       Ni166   1.972       .  S
C156        O162   1.299       .  A
H158        O159   0.966       .  S
O159       Ni167   1.901       .  S
O159       Ni161   1.881       .  S
O159       Ni166   1.903       .  S
O160       Ni161   1.985       .  S
Ni161       O165   1.999       .  S
Ni161       O163   1.998       .  S
O162       Ni167   1.967       .  S
C164        O165   1.317       .  A
C164        C254   1.533       .  S
O169       Ni175   1.955   1_554  S
O169        C190   1.290       .  A
O170       Ni193   1.980       .  S
O170        C179   1.311       .  A
O171       Ni175   1.841       .  S
O171       Ni193   1.854       .  S
O171       Ni187   1.869   1_556  S
O171        H194   0.966       .  S
C172        O189   1.301       .  A
C172        O181   1.309       .  A
C172        C245   1.519       .  S
O173       Ni192   1.959   1_556  S
O173        C179   1.292       .  A
O174       Ni192   1.950       .  S
O174        C176   1.274       .  A
Ni175       O178   1.987       .  S
Ni175       O180   1.979       .  S
C176        O186   1.313       .  A
C176        C262   1.554       .  S
O177       Ni193   1.996       .  S
O177        C183   1.326       .  A
O178        C183   1.299       .  A
O180        C182   1.284       .  A
O181       Ni192   2.006       .  S
C182        O188   1.277       .  A
H184        O185   0.962   1_556  S
O185       Ni193   1.875   1_554  S
O185       Ni187   1.881       .  S
O185       Ni192   1.819       .  S
O186       Ni187   2.000       .  S
Ni187       O191   2.007       .  S
Ni187       O189   1.976       .  S
O188       Ni193   1.965       .  S
C190        O191   1.328       .  A
C190        C277   1.533       .  S
O195      Ni2307   1.921       .  S
O195        C205   1.280       .  A
O196       Ni203   1.910       .  S
O196        C206   1.278       .  A
O197       Ni203   1.949       .  S
O197        C207   1.289       .  A
O198      Ni2307   1.951       .  S
O198        C208   1.289       .  A
O199      Ni2308   1.881       .  S
O199        C208   1.273       .  A
O200       Ni204   1.909   1_455  S
O200        C207   1.277       .  A
O201       Ni204   1.936   1_455  S
O201        C206   1.288       .  A
O202      Ni2308   1.927       .  S
O202        C205   1.284       .  A
Ni203      O2299   1.916   1_455  S
Ni203      O2302   1.941   1_455  S
Ni203      Ni204   2.381   1_455  S
Ni204      O2303   1.879       .  S
Ni204      O2306   1.928       .  S
C205        C586   1.485       .  S
C206        C609   1.508       .  S
C207        C641   1.494       .  S
C208        C545   1.493       .  S
O209       Ni217   1.902       .  S
O209        C219   1.277       .  A
O210       Ni217   1.886       .  S
O210        C220   1.276       .  A
O211       Ni217   1.903       .  S
O211        C221   1.280       .  A
O212       Ni217   1.908       .  S
O212        C222   1.277       .  A
O213       Ni218   1.909       .  S
O213        C222   1.283       .  A
O214       Ni218   1.919       .  S
O214        C221   1.282       .  A
O215       Ni218   1.891       .  S
O215        C220   1.276       .  A
O216       Ni218   1.896       .  S
O216        C219   1.277       .  A
Ni217      Ni218   2.389       .  S
C219        C417   1.486       .  S
C220        C522   1.467       .  S
C221        C490   1.483       .  S
C222        C458   1.471       .  S
C223        C228   1.415       .  A
C223       C1276   1.480   1_545  A
C224        C225   1.426       .  A
C224       C1275   1.480       .  A
C225        C226   1.406       .  A
C225        H230   1.082       .  S
C226        C481   1.500       .  S
C226       C1279   1.410       .  A
C227        C554   1.497       .  S
C227        C228   1.395       .  A
C227       C1278   1.411   1_545  A
C228        H229   1.083       .  S
O231      Ni1291   1.913       .  S
O231        C241   1.280       .  A
O232       Ni239   1.914       .  S
O232        C242   1.284       .  A
O233       Ni239   1.912       .  S
O233        C243   1.278       .  A
O234      Ni1291   1.911       .  S
O234        C244   1.278       .  A
O235      Ni1292   1.923       .  S
O235        C244   1.284       .  A
O236       Ni240   1.927       .  S
O236        C243   1.282       .  A
O237       Ni240   1.905       .  S
O237        C242   1.276       .  A
O238      Ni1292   1.908       .  S
O238        C241   1.279       .  A
Ni239      O1283   1.923   1_545  S
Ni239      O1286   1.915   1_545  S
Ni239      Ni240   2.382       .  S
Ni240      O1287   1.927   1_545  S
Ni240      O1290   1.913   1_545  S
C241        C330   1.474       .  S
C242        C353   1.486       .  S
C243        C385   1.497       .  S
C244        C289   1.475       .  S
C245        C250   1.406       .  A
C245       C1298   1.473       .  A
C246        C247   1.414       .  A
C246       C1297   1.474   1_545  A
C247        C248   1.384       .  A
C247        H252   1.084       .  S
C248        C577   1.490       .  S
C248       C1301   1.402   1_545  A
C249        C513   1.468       .  S
C249        C250   1.388       .  A
C249       C1300   1.402       .  A
C250        H251   1.087       .  S
C253        C254   1.484       .  A
C253        C258   1.412       .  A
C254        C255   1.419       .  A
C255        C256   1.398       .  A
C255        H260   1.086       .  S
C256        C618   1.498       .  S
C256        C257   1.405       .  A
C257        C362   1.479       .  S
C257        C258   1.395       .  A
C258        H259   1.085       .  S
C261        C262   1.497       .  A
C261        C266   1.420       .  A
C262        C263   1.428       .  A
C263        C264   1.399       .  A
C263        H268   1.082       .  S
C264        C650   1.504       .  S
C264        C265   1.403       .  A
C265        C394   1.488       .  S
C265        C266   1.398       .  A
C266        H267   1.084       .  S
C269        C274   1.412       .  A
C269       C2374   1.481       .  A
C270        C271   1.415       .  A
C270       C2373   1.482   1_455  A
C271        C272   1.395       .  A
C271        H276   1.086       .  S
C272        C298   1.502       .  S
C272       C2377   1.415   1_455  A
C273        C426   1.482       .  S
C273        C274   1.396       .  A
C273       C2376   1.411       .  A
C274        H275   1.086       .  S
C277        C282   1.420       .  A
C277       C2382   1.482   1_455  A
C278        C279   1.413       .  A
C278       C2381   1.478       .  A
C279        C280   1.395       .  A
C279        H284   1.086       .  S
C280        C449   1.482       .  S
C280       C2385   1.405       .  A
C281        C321   1.492       .  S
C281        C282   1.395       .  A
C281       C2384   1.405   1_455  A
C282        H283   1.084       .  S
C285        C286   1.407       .  A
C285        C290   1.409       .  A
C285        H295   1.079       .  S
C286        C291   1.484       .  S
C286        C287   1.404       .  A
C287        C288   1.396       .  A
C287        C292   1.507       .  S
C288        C289   1.402       .  A
C288        H293   1.077       .  S
C289        C290   1.414       .  A
C290        C294   1.505       .  S
C291        C296   1.406       .  A
C291        C300   1.397       .  A
C292        H308   1.103       .  S
C292        H309   1.103       .  S
C292        H310   1.102       .  S
C294        H305   1.110       .  S
C294        H306   1.107       .  S
C294        H307   1.109       .  S
C296        C297   1.400       .  A
C296        C301   1.496       .  S
C297        C298   1.403       .  A
C297       H2406   1.084       .  S
C298        C299   1.423       .  A
C299        C300   1.409       .  A
C299        C303   1.503       .  S
C300        H304   1.084       .  S
C301        H312   1.096       .  S
C301        H313   1.100       .  S
C301       H2415   1.109       .  S
H302       C2401   1.084       .  S
C303        H314   1.104       .  S
C303        H315   1.110       .  S
C303        H316   1.108       .  S
H311       C2405   1.107       .  S
C317        C318   1.408       .  A
C317        C322   1.400       .  A
C317        H327   1.084       .  S
C318        C323   1.506       .  S
C318        C319   1.416       .  A
C319        C320   1.411       .  A
C319        C324   1.501       .  S
C320        C321   1.404       .  A
C320        H325   1.084       .  S
C321        C322   1.413       .  A
C322        C326   1.508       .  S
C323        C328   1.422       .  A
C323        C332   1.405       .  A
C324        H340   1.106       .  S
C324        H341   1.088       .  S
C324        H342   1.108       .  S
C326        H337   1.110       .  S
C326        H338   1.110       .  S
C326        H339   1.107       .  S
C328        C329   1.401       .  A
C328        C333   1.493       .  S
C329        C330   1.397       .  A
C329        H334   1.085       .  S
C330        C331   1.411       .  A
C331        C332   1.398       .  A
C331        C335   1.503       .  S
C332        H336   1.078       .  S
C333        H343   1.110       .  S
C333        H344   1.101       .  S
C333        H345   1.102       .  S
C335        H346   1.108       .  S
C335        H347   1.107       .  S
C335        H348   1.106       .  S
C349        C350   1.397       .  A
C349        C354   1.409       .  A
C349        H359   1.078       .  S
C350        C355   1.498       .  S
C350        C351   1.410       .  A
C351        C352   1.393       .  A
C351        C356   1.475       .  S
C352        C353   1.393       .  A
C352        H357   1.085       .  S
C353        C354   1.420       .  A
C354        C358   1.499       .  S
C355        C360   1.420       .  A
C355        C364   1.398       .  A
C356        H372   1.101       .  S
C356        H373   1.110       .  S
C356        H374   1.107       .  S
C358        H369   1.103       .  S
C358        H370   1.110       .  S
C358        H371   1.105       .  S
C360        C361   1.403       .  A
C360        C365   1.494       .  S
C361        C362   1.397       .  A
C361        H366   1.085       .  S
C362        C363   1.411       .  A
C363        C364   1.398       .  A
C363        C367   1.504       .  S
C364        H368   1.078       .  S
C365        H375   1.109       .  S
C365        H376   1.110       .  S
C365        H377   1.100       .  S
C367        H378   1.110       .  S
C367        H379   1.107       .  S
C367        H380   1.107       .  S
C381        C382   1.400       .  A
C381        C386   1.402       .  A
C381        H391   1.079       .  S
C382        C387   1.501       .  S
C382        C383   1.413       .  A
C383        C384   1.409       .  A
C383        C388   1.502       .  S
C384        C385   1.409       .  A
C384        H389   1.079       .  S
C385        C386   1.419       .  A
C386        C390   1.510       .  S
C387        C392   1.421       .  A
C387        C396   1.408       .  A
C388        H404   1.108       .  S
C388        H405   1.107       .  S
C388        H406   1.107       .  S
C390        H401   1.104       .  S
C390        H402   1.105       .  S
C390        H403   1.110       .  S
C392        C393   1.405       .  A
C392        C397   1.515       .  S
C393        C394   1.398       .  A
C393        H398   1.084       .  S
C394        C395   1.405       .  A
C395        C396   1.406       .  A
C395        C399   1.506       .  S
C396        H400   1.074       .  S
C397        H407   1.109       .  S
C397        H408   1.103       .  S
C397        H409   1.108       .  S
C399        H410   1.105       .  S
C399        H411   1.108       .  S
C399        H412   1.104       .  S
C413        C414   1.395       .  A
C413        C418   1.405       .  A
C413        H423   1.081       .  S
C414        C419   1.480       .  S
C414        C415   1.404       .  A
C415        C416   1.393       .  A
C415        C420   1.502       .  S
C416        C417   1.414       .  A
C416        H421   1.083       .  S
C417        C418   1.423       .  A
C418        C422   1.511       .  S
C419        C424   1.415       .  A
C419        C428   1.404       .  A
C420        H436   1.105       .  S
C420        H437   1.109       .  S
C420        H438   1.109       .  S
C422        H433   1.111       .  S
C422        H434   1.111       .  S
C422        H435   1.108       .  S
C424        C425   1.394       .  A
C424        C429   1.510       .  S
C425        C426   1.394       .  A
C425       H2534   1.083       .  S
C426        C427   1.415       .  A
C427        C428   1.407       .  A
C427        C431   1.505       .  S
C428        H432   1.081       .  S
C429        H440   1.105       .  S
C429        H441   1.106       .  S
C429       H2543   1.099       .  S
H430       C2529   1.083       .  S
C431        H442   1.111       .  S
C431        H443   1.110       .  S
C431        H444   1.110       .  S
H439       C2533   1.098       .  S
C445        C446   1.412       .  A
C445        C450   1.406       .  A
C445        H455   1.083       .  S
C446        C451   1.500       .  S
C446        C447   1.423       .  A
C447        C448   1.402       .  A
C447        C452   1.506       .  S
C448        C449   1.397       .  A
C448        H453   1.083       .  S
C449        C450   1.403       .  A
C450       C2558   1.507       .  S
C451        C456   1.419       .  A
C451        C460   1.400       .  A
C452        H468   1.098       .  S
C452        H469   1.110       .  S
C452        H470   1.109       .  S
C454       C2554   1.508       .  S
C454        H465   1.109       .  S
C454        H466   1.110       .  S
C454        H467   1.111       .  S
C456        C457   1.392       .  A
C456        C461   1.482       .  S
C457        C458   1.386       .  A
C457        H462   1.086       .  S
C458        C459   1.423       .  A
C459        C460   1.406       .  A
C459        C463   1.501       .  S
C460        H464   1.084       .  S
C461        H471   1.110       .  S
C461        H472   1.104       .  S
C461        H473   1.106       .  S
C463        H474   1.111       .  S
C463        H475   1.101       .  S
C463        H476   1.106       .  S
C477        C478   1.403       .  A
C477        C482   1.410       .  A
C477        H487   1.081       .  S
C478        C483   1.485       .  S
C478        C479   1.404       .  A
C479        C480   1.401       .  A
C479        C484   1.505       .  S
C480        C481   1.404       .  A
C480        H485   1.081       .  S
C481        C482   1.420       .  A
C482        C486   1.508       .  S
C483        C488   1.406       .  A
C483        C492   1.400       .  A
C484        H500   1.108       .  S
C484        H501   1.104       .  S
C484        H502   1.103       .  S
C486        H497   1.111       .  S
C486        H498   1.107       .  S
C486        H499   1.108       .  S
C488        C489   1.396       .  A
C488        C493   1.500       .  S
C489        C490   1.406       .  A
C489        H494   1.083       .  S
C490        C491   1.415       .  A
C491        C492   1.405       .  A
C491        C495   1.506       .  S
C492        H496   1.073       .  S
C493        H503   1.109       .  S
C493        H504   1.108       .  S
C493        H505   1.101       .  S
C495        H506   1.109       .  S
C495        H507   1.109       .  S
C495        H508   1.110       .  S
C509        C510   1.402       .  A
C509        C514   1.397       .  A
C509        H519   1.084       .  S
C510        C515   1.467       .  S
C510        C511   1.407       .  A
C511        C512   1.389       .  A
C511        C516   1.499       .  S
C512        C513   1.397       .  A
C512        H517   1.083       .  S
C513        C514   1.413       .  A
C514        C518   1.506       .  S
C515        C520   1.403       .  A
C515        C524   1.394       .  A
C516        H532   1.105       .  S
C516        H533   1.102       .  S
C516        H534   1.088       .  S
C518        H529   1.111       .  S
C518        H530   1.111       .  S
C518        H531   1.106       .  S
C520        C521   1.393       .  A
C520        C525   1.494       .  S
C521        C522   1.400       .  A
C521        H526   1.084       .  S
C522        C523   1.410       .  A
C523        C524   1.397       .  A
C523        C527   1.491       .  S
C524        H528   1.081       .  S
C525        H535   1.105       .  S
C525        H536   1.101       .  S
C525        H537   1.101       .  S
C527        H538   1.094       .  S
C527        H539   1.105       .  S
C527        H540   1.107       .  S
C541        C542   1.396       .  A
C541        C546   1.401       .  A
C541        H551   1.076       .  S
C542        C547   1.496       .  S
C542        C543   1.414       .  A
C543        C544   1.416       .  A
C543        C548   1.503       .  S
C544        C545   1.412       .  A
C544        H549   1.084       .  S
C545        C546   1.419       .  A
C546        C550   1.512       .  S
C547        C552   1.407       .  A
C547        C556   1.405       .  A
C548        H564   1.093       .  S
C548        H565   1.103       .  S
C548        H566   1.109       .  S
C550        H561   1.105       .  S
C550        H562   1.109       .  S
C550        H563   1.111       .  S
C552        C553   1.403       .  A
C552        C557   1.491       .  S
C553        C554   1.401       .  A
C553        H558   1.085       .  S
C554        C555   1.416       .  A
C555        C556   1.408       .  A
C555       C1611   1.505       .  S
C556        H560   1.078       .  S
C557        H567   1.098       .  S
C557        H568   1.106       .  S
C557        H569   1.092       .  S
C559       C1607   1.504       .  S
C559        H570   1.110       .  S
C559        H571   1.107       .  S
C559        H572   1.111       .  S
C573        C574   1.402       .  A
C573        C578   1.410       .  A
C573        H583   1.080       .  S
C574        C579   1.496       .  S
C574        C575   1.423       .  A
C575        C576   1.396       .  A
C575        C580   1.505       .  S
C576        C577   1.397       .  A
C576        H581   1.084       .  S
C577        C578   1.413       .  A
C578        C582   1.501       .  S
C579        C584   1.404       .  A
C579        C588   1.409       .  A
C580        H596   1.099       .  S
C580        H597   1.110       .  S
C580        H598   1.109       .  S
C582        H593   1.099       .  S
C582        H594   1.108       .  S
C582        H595   1.105       .  S
C584        C585   1.404       .  A
C584        C589   1.497       .  S
C585        C586   1.402       .  A
C585        H590   1.084       .  S
C586        C587   1.413       .  A
C587        C588   1.418       .  A
C587        C591   1.504       .  S
C588        H592   1.083       .  S
C589        H599   1.102       .  S
C589        H600   1.079       .  S
C589        H601   1.099       .  S
C591        H602   1.110       .  S
C591        H603   1.106       .  S
C591        H604   1.102       .  S
C605        C606   1.404       .  A
C605        C610   1.412       .  A
C605        H615   1.083       .  S
C606        C611   1.512       .  S
C606        C607   1.418       .  A
C607        C608   1.412       .  A
C607        C612   1.507       .  S
C608        C609   1.410       .  A
C608        H613   1.084       .  S
C609        C610   1.425       .  A
C610        C614   1.507       .  S
C611        C616   1.422       .  A
C611        C620   1.409       .  A
C612        H628   1.096       .  S
C612        H629   1.105       .  S
C612        H630   1.109       .  S
C614        H625   1.110       .  S
C614        H626   1.104       .  S
C614        H627   1.107       .  S
C616        C617   1.402       .  A
C616        C621   1.502       .  S
C617        C618   1.396       .  A
C617        H622   1.081       .  S
C618        C619   1.416       .  A
C619        C620   1.410       .  A
C619        C623   1.507       .  S
C620        H624   1.078       .  S
C621        H631   1.102       .  S
C621        H632   1.100       .  S
C621        H633   1.103       .  S
C623        H634   1.110       .  S
C623        H635   1.107       .  S
C623        H636   1.111       .  S
C637        C638   1.403       .  A
C637        C642   1.405       .  A
C637        H647   1.077       .  S
C638        C643   1.523       .  S
C638        C639   1.428       .  A
C639        C640   1.413       .  A
C639        C644   1.495       .  S
C640        C641   1.396       .  A
C640        H645   1.084       .  S
C641        C642   1.417       .  A
C642        C646   1.499       .  S
C643        C648   1.426       .  A
C643        C652   1.411       .  A
C644        H660   1.104       .  S
C644        H661   1.111       .  S
C644        H662   1.106       .  S
C646        H657   1.107   1_455  S
C646        H658   1.100   1_455  S
C646        H659   1.108       .  S
C648        C649   1.412       .  A
C648        C653   1.509       .  S
C649        C650   1.403       .  A
C649        H654   1.083       .  S
C650        C651   1.406       .  A
C651        C652   1.408       .  A
C651        C655   1.503       .  S
C652        H656   1.074       .  S
C653        H663   1.110       .  S
C653        H664   1.109       .  S
C653        H665   1.108       .  S
C655        H666   1.106       .  S
C655        H667   1.109       .  S
C655        H668   1.106       .  S
C669        C670   1.393       .  A
C669        C674   1.399       .  A
C669        H679   1.079       .  S
C670        C675   1.502       .  S
C670        C671   1.425       .  A
C671        C672   1.405       .  A
C671        C676   1.493       .  S
C672        C673   1.396       .  A
C672        H677   1.085       .  S
C673        C674   1.415       .  A
C674        C678   1.501       .  S
C675        C680   1.410       .  A
C675        C684   1.409       .  A
C676        H692   1.095       .  S
C676        H693   1.110       .  S
C676        H694   1.107       .  S
C678        H689   1.105       .  S
C678        H690   1.101       .  S
C678        H691   1.096       .  S
C680        C681   1.404       .  A
C680        C685   1.490       .  S
C681        C682   1.400       .  A
C681        H686   1.085       .  S
C682        C683   1.410       .  A
C683        C684   1.407       .  A
C683        C687   1.507       .  S
C684        H688   1.081       .  S
C685        H695   1.106       .  S
C685        H696   1.105       .  S
C685        H697   1.106       .  S
C687        H698   1.108       .  S
C687        H699   1.109       .  S
C687        H700   1.110       .  S
C701        C702   1.414       .  A
C701        C706   1.410       .  A
C701        H711   1.082       .  S
C702        C707   1.527       .  S
C702        C703   1.427       .  A
C703        C704   1.401       .  A
C703        C708   1.495       .  S
C704        C705   1.400       .  A
C704        H709   1.085       .  S
C705        C706   1.413       .  A
C706        C710   1.502       .  S
C707        C712   1.431       .  A
C707        C716   1.413       .  A
C708        H724   1.091       .  S
C708        H725   1.109       .  S
C708        H726   1.109       .  S
C710        H721   1.109       .  S
C710        H722   1.106       .  S
C710        H723   1.111       .  S
C712        C713   1.411       .  A
C712        C717   1.502       .  S
C713        C714   1.400       .  A
C713        H718   1.084       .  S
C714        C715   1.411       .  A
C715        C716   1.407       .  A
C715       C1771   1.502       .  S
C716        H720   1.083       .  S
C717        H727   1.109       .  S
C717        H728   1.100       .  S
C717        H729   1.108       .  S
C719       C1767   1.503       .  S
C719        H730   1.109       .  S
C719        H731   1.107       .  S
C719        H732   1.111       .  S
C733        C734   1.412       .  A
C733        C738   1.406       .  A
C733        H743   1.083       .  S
C734        C739   1.511       .  S
C734        C735   1.425       .  A
C735        C736   1.399       .  A
C735        C740   1.503       .  S
C736        C737   1.395       .  A
C736        H741   1.084       .  S
C737        C738   1.413       .  A
C738        C742   1.506       .  S
C739        C744   1.431       .  A
C739        C748   1.411       .  A
C740        H756   1.110       .  S
C740        H757   1.102       .  S
C740        H758   1.102       .  S
C742        H753   1.111       .  S
C742        H754   1.110       .  S
C742        H755   1.109   1_455  S
C744        C745   1.400       .  A
C744        C749   1.500       .  S
C745        C746   1.388       .  A
C745        H750   1.085       .  S
C746        C747   1.393       .  A
C747        C748   1.398       .  A
C747       C1803   1.498       .  S
C748        H752   1.073       .  S
C749        H759   1.110       .  S
C749        H760   1.111       .  S
C749        H761   1.104       .  S
C751       C1799   1.495       .  S
C751        H762   1.108       .  S
C751        H763   1.109       .  S
C751        H764   1.098       .  S
C765        C766   1.398       .  A
C765        C770   1.416       .  A
C765        H775   1.064       .  S
C766        C771   1.513       .  S
C766        C767   1.407       .  A
C767        C768   1.393       .  A
C767        C772   1.468       .  S
C768        C769   1.393       .  A
C768        H773   1.085       .  S
C769        C770   1.417       .  A
C770        C774   1.501       .  S
C771        C776   1.417       .  A
C771        C780   1.405       .  A
C772        H788   1.100       .  S
C772        H789   1.108       .  S
C772        H790   1.102       .  S
C774        H785   1.104       .  S
C774        H786   1.108       .  S
C774        H787   1.110       .  S
C776        C777   1.403       .  A
C776        C781   1.495       .  S
C777        C778   1.399       .  A
C777        H782   1.085       .  S
C778        C779   1.413       .  A
C779        C780   1.416       .  A
C779        C783   1.502       .  S
C780        H784   1.077       .  S
C781        H791   1.110       .  S
C781        H792   1.103       .  S
C781        H793   1.108       .  S
C783        H794   1.104       .  S
C783        H795   1.109       .  S
C783        H796   1.107       .  S
C797        C798   1.408       .  A
C797        C802   1.414       .  A
C797        H807   1.073   1_455  S
C798        C803   1.501       .  S
C798        C799   1.398       .  A
C799        C800   1.402       .  A
C799        C804   1.485       .  S
C800        C801   1.398       .  A
C800        H805   1.084       .  S
C801        C802   1.412       .  A
C802        C806   1.503   1_455  S
C803        C808   1.408       .  A
C803        C812   1.406       .  A
C804        H820   1.101       .  S
C804        H821   1.110       .  S
C804        H822   1.086       .  S
C806        H817   1.111       .  S
C806        H818   1.101       .  S
C806        H819   1.111       .  S
C808        C809   1.406       .  A
C808        C813   1.487       .  S
C809        C810   1.399       .  A
C809        H814   1.082       .  S
C810        C811   1.413       .  A
C811        C812   1.405       .  A
C811        C815   1.504       .  S
C812        H816   1.081       .  S
C813        H823   1.102       .  S
C813        H824   1.103       .  S
C813        H825   1.106       .  S
C815        H826   1.110   1_455  S
C815        H827   1.108       .  S
C815        H828   1.110       .  S
C829        C830   1.407       .  A
C829        C834   1.395       .  A
C829        H839   1.084       .  S
C830        C835   1.489       .  S
C830        C831   1.430       .  A
C831        C832   1.396       .  A
C831        C836   1.513       .  S
C832        C833   1.394       .  A
C832       H1889   1.085       .  S
C833        C834   1.396       .  A
C834        C838   1.503       .  S
C835        C840   1.414       .  A
C835        C844   1.416       .  A
C836        H852   1.103       .  S
C836        H853   1.111       .  S
C836       H1906   1.111   1_545  S
H837       C1884   1.085       .  S
C838        H849   1.110       .  S
C838        H850   1.103       .  S
C838        H851   1.104       .  S
C840        C841   1.388       .  A
C840        C845   1.499       .  S
C841        C842   1.392       .  A
C841        H846   1.080       .  S
C842        C843   1.401       .  A
C843        C844   1.406       .  A
C843        C847   1.505       .  S
C844        H848   1.083       .  S
C845        H855   1.101       .  S
C845        H856   1.100       .  S
C845        H857   1.110       .  S
C847        H858   1.110   1_545  S
C847        H859   1.110       .  S
C847        H860   1.110   1_545  S
H854       C1888   1.111       .  S
C861        C862   1.406       .  A
C861        C866   1.409       .  A
C861        H871   1.083       .  S
C862        C867   1.504       .  S
C862        C863   1.413       .  A
C863        C864   1.409       .  A
C863        C868   1.498       .  S
C864        C865   1.403       .  A
C864        H869   1.083       .  S
C865        C866   1.418       .  A
C866        C870   1.506   1_545  S
C867        C872   1.415       .  A
C867        C876   1.416       .  A
C868        H884   1.106       .  S
C868        H885   1.107       .  S
C868        H886   1.105       .  S
C870        H881   1.110   1_565  S
C870        H883   1.109       .  S
C870       H1934   1.109       .  S
C872        C873   1.399       .  A
C872        C877   1.504       .  S
C873        C874   1.397       .  A
C873        H878   1.082       .  S
C874        C875   1.402       .  A
C875        C876   1.409       .  A
C875        C879   1.505   1_545  S
C876        H880   1.079   1_545  S
C877        H887   1.108       .  S
C877        H888   1.106       .  S
C877        H889   1.096       .  S
C879        H890   1.110       .  S
C879        H891   1.110   1_565  S
C879        H892   1.110       .  S
H882       C1922   1.109       .  S
C893        C894   1.409       .  A
C893        C898   1.406       .  A
C893        H903   1.079       .  S
C894        C899   1.505       .  S
C894        C895   1.422       .  A
C895        C896   1.399       .  A
C895        C900   1.497       .  S
C896        C897   1.391       .  A
C896        H901   1.084       .  S
C897        C898   1.408       .  A
C898        C902   1.505       .  S
C899        C904   1.429       .  A
C899        C908   1.408       .  A
C900        H916   1.089       .  S
C900        H917   1.096       .  S
C900       H3022   1.098       .  S
C902        H913   1.110       .  S
C902        H914   1.111       .  S
C902        H915   1.109       .  S
C904        C905   1.401       .  A
C904        C909   1.502       .  S
C905        C906   1.395       .  A
C905        H910   1.086       .  S
C906        C907   1.401       .  A
C907        C908   1.400       .  A
C907        C911   1.506       .  S
C908        H912   1.075       .  S
C909        H919   1.107   1_455  S
C909        H920   1.108       .  S
C909        H921   1.100       .  S
C911        H922   1.101       .  S
C911        H923   1.110       .  S
C911        H924   1.107       .  S
H918       C3004   1.100       .  S
C925        C926   1.405       .  A
C925        C930   1.396       .  A
C925        H935   1.066       .  S
C926        C931   1.487       .  S
C926        C927   1.414       .  A
C927        C928   1.397       .  A
C927        C932   1.497       .  S
C928        C929   1.395       .  A
C928        H933   1.085       .  S
C929        C930   1.404       .  A
C930        C934   1.508       .  S
C931        C936   1.414       .  A
C931        C940   1.402       .  A
C932        H948   1.098       .  S
C932        H949   1.102       .  S
C932       H3054   1.101       .  S
C934        H945   1.111       .  S
C934        H946   1.110       .  S
C934        H947   1.108       .  S
C936        C937   1.399       .  A
C936        C941   1.503       .  S
C937        C938   1.406       .  A
C937        H942   1.084       .  S
C938        C939   1.422       .  A
C939        C940   1.401       .  A
C939        C943   1.508       .  S
C940        H944   1.082       .  S
C941        H951   1.107       .  S
C941        H952   1.106       .  S
C941        H953   1.102       .  S
C943        H954   1.110   1_545  S
C943        H955   1.110       .  S
C943        H956   1.110       .  S
H950       C3036   1.100       .  S
C957        C958   1.399       .  A
C957        C962   1.402       .  A
C957        H967   1.059       .  S
C958        C963   1.512       .  S
C958        C959   1.409       .  A
C959        C960   1.416       .  A
C959        C964   1.490       .  S
C960        C961   1.406       .  A
C960        H965   1.084       .  S
C961        C962   1.406       .  A
C962        C966   1.510       .  S
C963        C968   1.421       .  A
C963        C972   1.409       .  A
C964        H980   1.107       .  S
C964        H981   1.105       .  S
C964        H982   1.103       .  S
C966        H977   1.102       .  S
C966        H978   1.103       .  S
C966        H979   1.108       .  S
C968        C969   1.401       .  A
C968        C973   1.498       .  S
C969        C970   1.402       .  A
C969        H974   1.084       .  S
C970        C971   1.416       .  A
C971        C972   1.413       .  A
C971        C975   1.506       .  S
C972        H976   1.076       .  S
C973        H983   1.109       .  S
C973        H984   1.109       .  S
C973        H985   1.099       .  S
C975        H986   1.109       .  S
C975        H987   1.110       .  S
C975        H988   1.106       .  S
C989        C990   1.402       .  A
C989        C994   1.398       .  A
C989        H999   1.073       .  S
C990        C995   1.498       .  S
C990        C991   1.416       .  A
C991        C992   1.405       .  A
C991        C996   1.496       .  S
C992        C993   1.401       .  A
C992        H997   1.085       .  S
C993        C994   1.404       .  A
C994        C998   1.503       .  S
C995       C1000   1.411       .  A
C995       C1004   1.411       .  A
C996       H1012   1.105       .  S
C996       H1013   1.104       .  S
C996       H1014   1.107       .  S
C998       H1009   1.108       .  S
C998       H3114   1.103       .  S
C998       H3115   1.110       .  S
C1000      C1001   1.396       .  A
C1000      C1005   1.501       .  S
C1001      C1002   1.400       .  A
C1001      H1006   1.085       .  S
C1002      C1003   1.407       .  A
C1003      C1004   1.413       .  A
C1003      C1007   1.503       .  S
C1004      H1008   1.078       .  S
C1005      H1015   1.109   1_545  S
C1005      H1016   1.101   1_545  S
C1005      H1017   1.105       .  S
C1007      H1018   1.108       .  S
C1007      H1019   1.110       .  S
C1007      H1020   1.108       .  S
H1010      C3102   1.110       .  S
H1011      C3102   1.108       .  S
C1021      C1022   1.399       .  A
C1021      C1026   1.394       .  A
C1021      H1031   1.076       .  S
C1022      C1027   1.512       .  S
C1022      C1023   1.436       .  A
C1023      C1024   1.416       .  A
C1023      C1028   1.513       .  S
C1024      C1025   1.405       .  A
C1024      H1029   1.084       .  S
C1025      C1026   1.402       .  A
C1026      C1030   1.501       .  S
C1027      C1032   1.438       .  A
C1027      C1036   1.409       .  A
C1028      H1044   1.099       .  S
C1028      H1045   1.107       .  S
C1028      H1046   1.110       .  S
C1030      H1041   1.107       .  S
C1030      H1042   1.104       .  S
C1030      H1043   1.111       .  S
C1032      C1033   1.395       .  A
C1032      C1037   1.517       .  S
C1033      C1034   1.393       .  A
C1033      H1038   1.083       .  S
C1034      C1035   1.408       .  A
C1035      C1036   1.404       .  A
C1035      C1039   1.507       .  S
C1036      H1040   1.076       .  S
C1037      H1047   1.111       .  S
C1037      H1048   1.108       .  S
C1037      H1049   1.104       .  S
C1039      H1050   1.108       .  S
C1039      H1051   1.111       .  S
C1039      H1052   1.108       .  S
O1053     Ni1059   1.969   1_556  S
O1053      C1074   1.292       .  A
O1054     Ni1077   1.991       .  S
O1054      C1063   1.327       .  A
O1055     Ni1059   1.818       .  S
O1055     Ni1077   1.878       .  S
O1055     Ni1071   1.868   1_554  S
O1055      H1078   0.963   1_554  S
C1056      O1073   1.318       .  A
C1056      O1065   1.299       .  A
C1056      C1180   1.552       .  S
O1057     Ni1076   1.932   1_554  S
O1057      C1063   1.285       .  A
O1058     Ni1076   1.963       .  S
O1058      C1060   1.283       .  A
Ni1059     O1062   2.018       .  S
Ni1059     O1064   1.950       .  S
C1060      O1070   1.285       .  A
C1060      C1188   1.526       .  S
O1061     Ni1077   1.991       .  S
O1061      C1067   1.306       .  A
O1062      C1067   1.314       .  A
C1063      C1298   1.507       .  S
O1064      C1066   1.272       .  A
O1065     Ni1076   1.998       .  S
C1066      O1072   1.314       .  A
C1066      C1313   1.557       .  S
C1067      C1330   1.538       .  S
H1068      O1069   0.965   1_554  S
O1069     Ni1077   1.868   1_556  S
O1069     Ni1071   1.834       .  S
O1069     Ni1076   1.838       .  S
O1070     Ni1071   1.986       .  S
Ni1071     O1075   1.946       .  S
Ni1071     O1073   1.977       .  S
O1072     Ni1077   2.006       .  S
C1074      O1075   1.302       .  A
C1074      C1164   1.510       .  S
O1079     Ni1085   1.898       .  S
O1079      C1100   1.275       .  A
O1080     Ni1103   1.978       .  S
O1080      C1089   1.305       .  A
O1081     Ni1085   1.925       .  S
O1081     Ni1103   1.889       .  S
O1081     Ni1097   1.863       .  S
O1081      H1104   0.967       .  S
C1082      O1099   1.306       .  A
C1082      O1091   1.288       .  A
C1082      C1321   1.526       .  S
O1083     Ni1102   1.934       .  S
O1083      C1089   1.281       .  A
O1084     Ni1102   1.940       .  S
O1084      C1086   1.271       .  A
Ni1085     O1088   1.945       .  S
Ni1085     O1090   1.953       .  S
C1086      O1096   1.303       .  A
C1086      C1305   1.548       .  S
O1087     Ni1103   2.009       .  S
O1087      C1093   1.323       .  A
O1088      C1093   1.289       .  A
C1089      C1171   1.512       .  S
O1090      C1092   1.264       .  A
O1091     Ni1102   1.968       .  S
C1092      O1098   1.266       .  A
C1092      C1148   1.521       .  S
C1093      C1156   1.537       .  S
H1094      O1095   0.965       .  S
O1095     Ni1103   1.940       .  S
O1095     Ni1097   1.904       .  S
O1095     Ni1102   1.891       .  S
O1096     Ni1097   2.014       .  S
Ni1097     O1101   2.024       .  S
Ni1097     O1099   1.985       .  S
O1098     Ni1103   1.948       .  S
C1100      O1101   1.326       .  A
C1100      C1275   1.530       .  S
O1105      C1115   1.275       .  A
O1106     Ni1113   1.889       .  S
O1106      C1116   1.277       .  A
O1107     Ni1113   1.904       .  S
O1107      C1117   1.278       .  A
O1108      C1118   1.281       .  A
O1109      C1118   1.282       .  A
O1110     Ni1114   1.916       .  S
O1110      C1117   1.283       .  A
O1111     Ni1114   1.926       .  S
O1111      C1116   1.282       .  A
O1112      C1115   1.285       .  A
Ni1113    Ni1114   2.383       .  S
C1115      C1990   1.493       .  S
C1116      C2077   1.479       .  S
C1117      C2022   1.488       .  S
C1118      C2054   1.481       .  S
O1119     Ni1127   1.925       .  S
O1119      C1129   1.282       .  A
O1120     Ni1127   1.930       .  S
O1120      C1130   1.285       .  A
O1121     Ni1127   1.903       .  S
O1121      C1131   1.278       .  A
O1122     Ni1127   1.906       .  S
O1122      C1132   1.277       .  A
O1123     Ni1128   1.911       .  S
O1123      C1132   1.280       .  A
O1124     Ni1128   1.903       .  S
O1124      C1131   1.281       .  A
O1125     Ni1128   1.916       .  S
O1125      C1130   1.280       .  A
O1126     Ni1128   1.917       .  S
O1126      C1129   1.281       .  A
Ni1127    Ni1128   2.392       .  S
C1129      C1926   1.477       .  S
C1130      C1853   1.486       .  S
C1131      C1958   1.465       .  S
C1132      C1894   1.459       .  S
O1133     Ni3245   1.921   1_455  S
O1133      C1143   1.284       .  A
O1134     Ni1141   1.909       .  S
O1134      C1144   1.283       .  A
O1135     Ni1141   1.910       .  S
O1135      C1145   1.279       .  A
O1136     Ni3245   1.920       .  S
O1136      C1146   1.279   1_655  A
O1137     Ni3246   1.908   1_455  S
O1137      C1146   1.283       .  A
O1138     Ni1142   1.920       .  S
O1138      C1145   1.281       .  A
O1139     Ni1142   1.918       .  S
O1139      C1144   1.279       .  A
O1140     Ni3246   1.922   1_455  S
O1140      C1143   1.281       .  A
Ni1141     O3237   1.918       .  S
Ni1141     O3240   1.918       .  S
Ni1141    Ni1142   2.383       .  S
Ni1142     O3241   1.914       .  S
Ni1142     O3244   1.921       .  S
C1143      C1757   1.499       .  S
C1144      C1821   1.494       .  S
C1145      C1725   1.476       .  S
C1146      C1789   1.481       .  S
C1147      C1209   1.530       .  S
C1147      C3252   1.475   1_455  A
C1147      C1152   1.419       .  A
C1148      C3251   1.476       .  A
C1148      C1149   1.413       .  A
C1149      C1150   1.390       .  A
C1149      H1154   1.087       .  S
C1150      C2045   1.479       .  S
C1150      C3255   1.401       .  A
C1151      C1949   1.484       .  S
C1151      C3254   1.404   1_455  A
C1151      C1152   1.400       .  A
C1152      H1153   1.086       .  S
C1155      C1205   1.526       .  S
C1155      C1160   1.407       .  A
C1156      C1157   1.429       .  A
C1157      C1158   1.400       .  A
C1157      H1162   1.083       .  S
C1158      C1917   1.508       .  S
C1159      C1798   1.465       .  S
C1159      C1160   1.382       .  A
C1160      H1161   1.084       .  S
C1163      C1231   1.524       .  S
C1163      C1164   1.459       .  A
C1163      C1168   1.422       .  A
C1164      C1165   1.418       .  A
C1165      C1166   1.392       .  A
C1165      H1170   1.085       .  S
C1166      C1734   1.501       .  S
C1166      C1167   1.408       .  A
C1167      C2013   1.487       .  S
C1167      C1168   1.408       .  A
C1168      H1169   1.084       .  S
C1171      C1172   1.463       .  A
C1171      C1176   1.412       .  A
C1172      C1208   1.515       .  S
C1172      C1173   1.404       .  A
C1173      C1174   1.396       .  A
C1173      H1178   1.085       .  S
C1174      C2086   1.483       .  S
C1174      C1175   1.414       .  A
C1175      C1830   1.499       .  S
C1175      C1176   1.400       .  A
C1176      H1177   1.086       .  S
C1179      C1234   1.528       .  S
C1179      C1184   1.428       .  A
C1180      C1181   1.414       .  A
C1181      C1182   1.386       .  A
C1181      H1186   1.083       .  S
C1182      C1885   1.464       .  S
C1183      C1766   1.508       .  S
C1183      C1184   1.394       .  A
C1184      H1185   1.086       .  S
C1187      C1235   1.542       .  S
C1187      C3292   1.496   1_455  A
C1187      C1192   1.419       .  A
C1188      C3291   1.494       .  A
C1188      C1189   1.409       .  A
C1189      C1190   1.377       .  A
C1189      H1194   1.089       .  S
C1190      C1981   1.465       .  S
C1190      C3295   1.395       .  A
C1191      C1862   1.479   1_655  S
C1191      C3294   1.396       .  A
C1191      C1192   1.389   1_655  A
C1192      H1193   1.085       .  S
O1195     Ni1201   1.974       .  S
O1195      C1216   1.297       .  A
O1196     Ni1219   2.013       .  S
O1196      C1205   1.324       .  A
O1197     Ni1201   1.813       .  S
O1197     Ni1219   1.904       .  S
O1197     Ni1213   1.904       .  S
O1197      H1220   0.964       .  S
C1198      O1215   1.321       .  A
C1198      O1207   1.295       .  A
C1198      C1276   1.547       .  S
O1199     Ni1218   1.909       .  S
O1199      C1205   1.276       .  A
O1200     Ni1218   1.939       .  S
O1200      C1202   1.264       .  A
Ni1201     O1204   2.030       .  S
Ni1201     O1206   1.937       .  S
C1202      O1212   1.281       .  A
C1202      C1322   1.528       .  S
O1203     Ni1219   1.958       .  S
O1203      C1209   1.319       .  A
O1204      C1209   1.321       .  A
O1206      C1208   1.274       .  A
O1207     Ni1218   1.970       .  S
C1208      O1214   1.295       .  A
H1210      O1211   0.967       .  S
O1211     Ni1219   1.897       .  S
O1211     Ni1213   1.877       .  S
O1211     Ni1218   1.899       .  S
O1212     Ni1213   1.988       .  S
Ni1213     O1217   2.004       .  S
Ni1213     O1215   2.001       .  S
O1214     Ni1219   1.960       .  S
C1216      O1217   1.318       .  A
C1216      C1306   1.537       .  S
O1221     Ni1227   1.956   1_554  S
O1221      C1242   1.290       .  A
O1222     Ni1245   1.985       .  S
O1222      C1231   1.313       .  A
O1223     Ni1227   1.842       .  S
O1223     Ni1245   1.855       .  S
O1223     Ni1239   1.867   1_556  S
O1223      H1246   0.966       .  S
C1224      O1241   1.301       .  A
C1224      O1233   1.309       .  A
C1224      C1297   1.518       .  S
O1225     Ni1244   1.960   1_556  S
O1225      C1231   1.291       .  A
O1226     Ni1244   1.950       .  S
O1226      C1228   1.274       .  A
Ni1227     O1230   1.987       .  S
Ni1227     O1232   1.979       .  S
C1228      O1238   1.312       .  A
C1228      C1314   1.552       .  S
O1229     Ni1245   1.994       .  S
O1229      C1235   1.326       .  A
O1230      C1235   1.299       .  A
O1232      C1234   1.285       .  A
O1233     Ni1244   2.005       .  S
C1234      O1240   1.279       .  A
H1236      O1237   0.959       .  S
O1237     Ni1245   1.872       .  S
O1237     Ni1239   1.883   1_556  S
O1237     Ni1244   1.819   1_556  S
O1238     Ni1239   1.998       .  S
Ni1239     O1243   2.004       .  S
Ni1239     O1241   1.977       .  S
O1240     Ni1245   1.971       .  S
C1242      O1243   1.327       .  A
C1242      C1329   1.532       .  S
O1247     Ni3359   1.915       .  S
O1247      C1257   1.278       .  A
O1248     Ni1255   1.910       .  S
O1248      C1258   1.278       .  A
O1249     Ni1255   1.955       .  S
O1249      C1259   1.290       .  A
O1250     Ni3359   1.953       .  S
O1250      C1260   1.290       .  A
O1251     Ni3360   1.882       .  S
O1251      C1260   1.272       .  A
O1252     Ni1256   1.911   1_455  S
O1252      C1259   1.277       .  A
O1253     Ni1256   1.935   1_455  S
O1253      C1258   1.288       .  A
O1254     Ni3360   1.930       .  S
O1254      C1257   1.285       .  A
Ni1255     O3351   1.917   1_455  S
Ni1255     O3354   1.944   1_455  S
Ni1255    Ni1256   2.380   1_455  S
Ni1256     O3355   1.878       .  S
Ni1256     O3358   1.926       .  S
C1257      C1638   1.484       .  S
C1258      C1661   1.509       .  S
C1259      C1693   1.500       .  S
C1260      C1597   1.493       .  S
O1261     Ni1269   1.902       .  S
O1261      C1271   1.277       .  A
O1262     Ni1269   1.881       .  S
O1262      C1272   1.275       .  A
O1263     Ni1269   1.900       .  S
O1263      C1273   1.279       .  A
O1264     Ni1269   1.914       .  S
O1264      C1274   1.279       .  A
O1265     Ni1270   1.910       .  S
O1265      C1274   1.282       .  A
O1266     Ni1270   1.921       .  S
O1266      C1273   1.282       .  A
O1267     Ni1270   1.894       .  S
O1267      C1272   1.277       .  A
O1268     Ni1270   1.895       .  S
O1268      C1271   1.277       .  A
Ni1269    Ni1270   2.389       .  S
C1271      C1469   1.485       .  S
C1272      C1574   1.469       .  S
C1273      C1542   1.481       .  S
C1274      C1510   1.472       .  S
C1275      C1280   1.416       .  A
C1276      C1277   1.426       .  A
C1277      C1278   1.407       .  A
C1277      H1282   1.082       .  S
C1278      C1533   1.502       .  S
C1279      C1606   1.497       .  S
C1279      C1280   1.395       .  A
C1280      H1281   1.083       .  S
O1283      C1293   1.283       .  A
O1284     Ni1291   1.908       .  S
O1284      C1294   1.283       .  A
O1285     Ni1291   1.909       .  S
O1285      C1295   1.277       .  A
O1286      C1296   1.279       .  A
O1287      C1296   1.285       .  A
O1288     Ni1292   1.925       .  S
O1288      C1295   1.282       .  A
O1289     Ni1292   1.903       .  S
O1289      C1294   1.276       .  A
O1290      C1293   1.280       .  A
Ni1291    Ni1292   2.384       .  S
C1293      C1382   1.484       .  S
C1294      C1405   1.482       .  S
C1295      C1437   1.494       .  S
C1296      C1341   1.481       .  S
C1297      C1302   1.405       .  A
C1298      C1299   1.411       .  A
C1299      C1300   1.381       .  A
C1299      H1304   1.084       .  S
C1300      C1629   1.486       .  S
C1301      C1565   1.466       .  S
C1301      C1302   1.386       .  A
C1302      H1303   1.087       .  S
C1305      C1306   1.488       .  A
C1305      C1310   1.414       .  A
C1306      C1307   1.420       .  A
C1307      C1308   1.397       .  A
C1307      H1312   1.086       .  S
C1308      C1670   1.500       .  S
C1308      C1309   1.405       .  A
C1309      C1414   1.480       .  S
C1309      C1310   1.397       .  A
C1310      H1311   1.085       .  S
C1313      C1314   1.497       .  A
C1313      C1318   1.418       .  A
C1314      C1315   1.430       .  A
C1315      C1316   1.401       .  A
C1315      H1320   1.082       .  S
C1316      C1702   1.509       .  S
C1316      C1317   1.404       .  A
C1317      C1446   1.485       .  S
C1317      C1318   1.398       .  A
C1318      H1319   1.084       .  S
C1321      C3426   1.482       .  A
C1321      C1326   1.412       .  A
C1322      C3425   1.479   1_455  A
C1322      C1323   1.410       .  A
C1323      C1324   1.392       .  A
C1323      H1328   1.087       .  S
C1324      C1350   1.492       .  S
C1324      C3429   1.412   1_455  A
C1325      C1478   1.482       .  S
C1325      C3428   1.409       .  A
C1325      C1326   1.395       .  A
C1326      H1327   1.086       .  S
C1329      C3434   1.481   1_455  A
C1329      C1334   1.421       .  A
C1330      C3433   1.483       .  A
C1330      C1331   1.414       .  A
C1331      C1332   1.396       .  A
C1331      H1336   1.086       .  S
C1332      C1501   1.482       .  S
C1332      C3437   1.404       .  A
C1333      C1373   1.492       .  S
C1333      C3436   1.404   1_455  A
C1333      C1334   1.395       .  A
C1334      H1335   1.084       .  S
C1337      C1338   1.404       .  A
C1337      C1342   1.408       .  A
C1337      H1347   1.079       .  S
C1338      C1343   1.483       .  S
C1338      C1339   1.404       .  A
C1339      C1340   1.399       .  A
C1339      C1344   1.508       .  S
C1340      C1341   1.404       .  A
C1340      H1345   1.077       .  S
C1341      C1342   1.415       .  A
C1342      C1346   1.505       .  S
C1343      C1348   1.406       .  A
C1343      C1352   1.397       .  A
C1344      H1360   1.103       .  S
C1344      H1361   1.103       .  S
C1344      H1362   1.102   1_565  S
C1346      H1357   1.109       .  S
C1346      H1358   1.107       .  S
C1346      H1359   1.108       .  S
C1348      C1349   1.397       .  A
C1348      C1353   1.494       .  S
C1349      C1350   1.401       .  A
C1349      H3458   1.084       .  S
C1350      C1351   1.421       .  A
C1351      C1352   1.408       .  A
C1351      C1355   1.505       .  S
C1352      H1356   1.084       .  S
C1353      H3467   1.108       .  S
C1353      H1364   1.096       .  S
C1353      H1365   1.100       .  S
H1354      C3453   1.084       .  S
C1355      H1366   1.105       .  S
C1355      H1367   1.111       .  S
C1355      H1368   1.108       .  S
H1363      C3457   1.106       .  S
C1369      C1370   1.411       .  A
C1369      C1374   1.402       .  A
C1369      H1379   1.084       .  S
C1370      C1375   1.512       .  S
C1370      C1371   1.420       .  A
C1371      C1372   1.411       .  A
C1371      C1376   1.502       .  S
C1372      C1373   1.402       .  A
C1372      H1377   1.084       .  S
C1373      C1374   1.412       .  A
C1374      C1378   1.509       .  S
C1375      C1380   1.424       .  A
C1375      C1384   1.406       .  A
C1376      H1392   1.105       .  S
C1376      H1393   1.088       .  S
C1376      H1394   1.109       .  S
C1378      H1389   1.109       .  S
C1378      H1390   1.110       .  S
C1378      H1391   1.107       .  S
C1380      C1381   1.405       .  A
C1380      C1385   1.494       .  S
C1381      C1382   1.398       .  A
C1381      H1386   1.085       .  S
C1382      C1383   1.412       .  A
C1383      C1384   1.401       .  A
C1383      C1387   1.501       .  S
C1384      H1388   1.079       .  S
C1385      H1395   1.110       .  S
C1385      H1396   1.102       .  S
C1385      H1397   1.102       .  S
C1387      H1398   1.107   1_565  S
C1387      H1399   1.106       .  S
C1387      H1400   1.106       .  S
C1401      C1402   1.397       .  A
C1401      C1406   1.407       .  A
C1401      H1411   1.077       .  S
C1402      C1407   1.498       .  S
C1402      C1403   1.411       .  A
C1403      C1404   1.393       .  A
C1403      C1408   1.477       .  S
C1404      C1405   1.394       .  A
C1404      H1409   1.085       .  S
C1405      C1406   1.418       .  A
C1406      C1410   1.501       .  S
C1407      C1412   1.419       .  A
C1407      C1416   1.399       .  A
C1408      H1424   1.101       .  S
C1408      H1425   1.110       .  S
C1408      H1426   1.107       .  S
C1410      H1421   1.102       .  S
C1410      H1422   1.110       .  S
C1410      H1423   1.106       .  S
C1412      C1413   1.403       .  A
C1412      C1417   1.496       .  S
C1413      C1414   1.398       .  A
C1413      H1418   1.084       .  S
C1414      C1415   1.410       .  A
C1415      C1416   1.398       .  A
C1415      C1419   1.503       .  S
C1416      H1420   1.079       .  S
C1417      H1427   1.109       .  S
C1417      H1428   1.110       .  S
C1417      H1429   1.100       .  S
C1419      H1430   1.109       .  S
C1419      H1431   1.107       .  S
C1419      H1432   1.107       .  S
C1433      C1434   1.400       .  A
C1433      C1438   1.400       .  A
C1433      H1443   1.080       .  S
C1434      C1439   1.499       .  S
C1434      C1435   1.413       .  A
C1435      C1436   1.408       .  A
C1435      C1440   1.502       .  S
C1436      C1437   1.408       .  A
C1436      H1441   1.079       .  S
C1437      C1438   1.419       .  A
C1438      C1442   1.510       .  S
C1439      C1444   1.421       .  A
C1439      C1448   1.407       .  A
C1440      H1456   1.108       .  S
C1440      H1457   1.107       .  S
C1440      H1458   1.107       .  S
C1442      H1453   1.106       .  S
C1442      H1454   1.106       .  S
C1442      H1455   1.110       .  S
C1444      C1445   1.404       .  A
C1444      C1449   1.514       .  S
C1445      C1446   1.397       .  A
C1445      H1450   1.083       .  S
C1446      C1447   1.406       .  A
C1447      C1448   1.405       .  A
C1447      C1451   1.507       .  S
C1448      H1452   1.074       .  S
C1449      H1459   1.110       .  S
C1449      H1460   1.103       .  S
C1449      H1461   1.108       .  S
C1451      H1462   1.107       .  S
C1451      H1463   1.108       .  S
C1451      H1464   1.105       .  S
C1465      C1466   1.396       .  A
C1465      C1470   1.406       .  A
C1465      H1475   1.081       .  S
C1466      C1471   1.479       .  S
C1466      C1467   1.402       .  A
C1467      C1468   1.392       .  A
C1467      C1472   1.501       .  S
C1468      C1469   1.414       .  A
C1468      H1473   1.083       .  S
C1469      C1470   1.422       .  A
C1470      C1474   1.510       .  S
C1471      C1476   1.416       .  A
C1471      C1480   1.403       .  A
C1472      H1488   1.106       .  S
C1472      H1489   1.109       .  S
C1472      H1490   1.109       .  S
C1474      H1485   1.111       .  S
C1474      H1486   1.111       .  S
C1474      H1487   1.109       .  S
C1476      C1477   1.394       .  A
C1476      C1481   1.511       .  S
C1477      C1478   1.394       .  A
C1477      H3586   1.083       .  S
C1478      C1479   1.415       .  A
C1479      C1480   1.407       .  A
C1479      C1483   1.505       .  S
C1480      H1484   1.081       .  S
C1481      H3595   1.099       .  S
C1481      H1492   1.105       .  S
C1481      H1493   1.106       .  S
H1482      C3581   1.083       .  S
C1483      H1494   1.111       .  S
C1483      H1495   1.110       .  S
C1483      H1496   1.110       .  S
H1491      C3585   1.098       .  S
C1497      C1498   1.412       .  A
C1497      C1502   1.408       .  A
C1497      H1507   1.083       .  S
C1498      C1503   1.497       .  S
C1498      C1499   1.421       .  A
C1499      C1500   1.400       .  A
C1499      C1504   1.507       .  S
C1500      C1501   1.397       .  A
C1500      H1505   1.083       .  S
C1501      C1502   1.406       .  A
C1502      C3610   1.508       .  S
C1503      C1508   1.419       .  A
C1503      C1512   1.400       .  A
C1504      H1520   1.099       .  S
C1504      H1521   1.110       .  S
C1504      H1522   1.110       .  S
C1506      C3606   1.508       .  S
C1506      H1517   1.109       .  S
C1506      H1518   1.109       .  S
C1506      H1519   1.111       .  S
C1508      C1509   1.394       .  A
C1508      C1513   1.482       .  S
C1509      C1510   1.387       .  A
C1509      H1514   1.086       .  S
C1510      C1511   1.416       .  A
C1511      C1512   1.404       .  A
C1511      C1515   1.496       .  S
C1512      H1516   1.084       .  S
C1513      H1523   1.110       .  S
C1513      H1524   1.104       .  S
C1513      H1525   1.106       .  S
C1515      H1526   1.110   1_565  S
C1515      H1527   1.096       .  S
C1515      H1528   1.110       .  S
C1529      C1530   1.403       .  A
C1529      C1534   1.411       .  A
C1529      H1539   1.082       .  S
C1530      C1535   1.485       .  S
C1530      C1531   1.404       .  A
C1531      C1532   1.401       .  A
C1531      C1536   1.505       .  S
C1532      C1533   1.404       .  A
C1532      H1537   1.081       .  S
C1533      C1534   1.421       .  A
C1534      C1538   1.507       .  S
C1535      C1540   1.406       .  A
C1535      C1544   1.402       .  A
C1536      H1552   1.108       .  S
C1536      H1553   1.101       .  S
C1536      H1554   1.102       .  S
C1538      H1549   1.111       .  S
C1538      H1550   1.107       .  S
C1538      H1551   1.108       .  S
C1540      C1541   1.394       .  A
C1540      C1545   1.502       .  S
C1541      C1542   1.406       .  A
C1541      H1546   1.083       .  S
C1542      C1543   1.414       .  A
C1543      C1544   1.405       .  A
C1543      C1547   1.506       .  S
C1544      H1548   1.074       .  S
C1545      H1555   1.109   1_565  S
C1545      H1556   1.107       .  S
C1545      H1557   1.102   1_565  S
C1547      H1558   1.109       .  S
C1547      H1559   1.109       .  S
C1547      H1560   1.110       .  S
C1561      C1562   1.402       .  A
C1561      C1566   1.398       .  A
C1561      H1571   1.084       .  S
C1562      C1567   1.465       .  S
C1562      C1563   1.406       .  A
C1563      C1564   1.386       .  A
C1563      C1568   1.498       .  S
C1564      C1565   1.395       .  A
C1564      H1569   1.084       .  S
C1565      C1566   1.414       .  A
C1566      C1570   1.506       .  S
C1567      C1572   1.400       .  A
C1567      C1576   1.393       .  A
C1568      H1584   1.106       .  S
C1568      H1585   1.101       .  S
C1568      H1586   1.088       .  S
C1570      H1581   1.111       .  S
C1570      H1582   1.111       .  S
C1570      H1583   1.106       .  S
C1572      C1573   1.393       .  A
C1572      C1577   1.493       .  S
C1573      C1574   1.400       .  A
C1573      H1578   1.084       .  S
C1574      C1575   1.414       .  A
C1575      C1576   1.395       .  A
C1575      C1579   1.493   1_565  S
C1576      H1580   1.081   1_565  S
C1577      H1587   1.108       .  S
C1577      H1588   1.102       .  S
C1577      H1589   1.102       .  S
C1579      H1590   1.094       .  S
C1579      H1591   1.105       .  S
C1579      H1592   1.106       .  S
C1593      C1594   1.396       .  A
C1593      C1598   1.403       .  A
C1593      H1603   1.077       .  S
C1594      C1599   1.496       .  S
C1594      C1595   1.411       .  A
C1595      C1596   1.415       .  A
C1595      C1600   1.500       .  S
C1596      C1597   1.410       .  A
C1596      H1601   1.084       .  S
C1597      C1598   1.420       .  A
C1598      C1602   1.511       .  S
C1599      C1604   1.406       .  A
C1599      C1608   1.402       .  A
C1600      H1616   1.095       .  S
C1600      H1617   1.103       .  S
C1600      H1618   1.108       .  S
C1602      H1613   1.107       .  S
C1602      H1614   1.109       .  S
C1602      H1615   1.110       .  S
C1604      C1605   1.403       .  A
C1604      C1609   1.490       .  S
C1605      C1606   1.401       .  A
C1605      H1610   1.085       .  S
C1606      C1607   1.417       .  A
C1607      C1608   1.407       .  A
C1608      H1612   1.078       .  S
C1609      H1619   1.098       .  S
C1609      H1620   1.105       .  S
C1609      H1621   1.092       .  S
C1611      H1622   1.110   1_545  S
C1611      H1623   1.107       .  S
C1611      H1624   1.111       .  S
C1625      C1626   1.403       .  A
C1625      C1630   1.409       .  A
C1625      H1635   1.081       .  S
C1626      C1631   1.493       .  S
C1626      C1627   1.422       .  A
C1627      C1628   1.393       .  A
C1627      C1632   1.505       .  S
C1628      C1629   1.395       .  A
C1628      H1633   1.085       .  S
C1629      C1630   1.412       .  A
C1630      C1634   1.502       .  S
C1631      C1636   1.404       .  A
C1631      C1640   1.408       .  A
C1632      H1648   1.099       .  S
C1632      H1649   1.110       .  S
C1632      H1650   1.108       .  S
C1634      H1645   1.098       .  S
C1634      H1646   1.108       .  S
C1634      H1647   1.106       .  S
C1636      C1637   1.402       .  A
C1636      C1641   1.497       .  S
C1637      C1638   1.402       .  A
C1637      H1642   1.084       .  S
C1638      C1639   1.412       .  A
C1639      C1640   1.416       .  A
C1639      C1643   1.504       .  S
C1640      H1644   1.082       .  S
C1641      H1651   1.102       .  S
C1641      H1652   1.080       .  S
C1641      H1653   1.099       .  S
C1643      H1654   1.110       .  S
C1643      H1655   1.107       .  S
C1643      H1656   1.102       .  S
C1657      C1658   1.403       .  A
C1657      C1662   1.412       .  A
C1657      H1667   1.083       .  S
C1658      C1663   1.510       .  S
C1658      C1659   1.417       .  A
C1659      C1660   1.412       .  A
C1659      C1664   1.506       .  S
C1660      C1661   1.411       .  A
C1660      H1665   1.084       .  S
C1661      C1662   1.426       .  A
C1662      C1666   1.507       .  S
C1663      C1668   1.421       .  A
C1663      C1672   1.409       .  A
C1664      H1680   1.097       .  S
C1664      H1681   1.105       .  S
C1664      H1682   1.109       .  S
C1666      H1677   1.111       .  S
C1666      H1678   1.105       .  S
C1666      H1679   1.107       .  S
C1668      C1669   1.401       .  A
C1668      C1673   1.503       .  S
C1669      C1670   1.397       .  A
C1669      H1674   1.081       .  S
C1670      C1671   1.417       .  A
C1671      C1672   1.411       .  A
C1671      C1675   1.507       .  S
C1672      H1676   1.078       .  S
C1673      H1683   1.101       .  S
C1673      H1684   1.101       .  S
C1673      H1685   1.102       .  S
C1675      H1686   1.110       .  S
C1675      H1687   1.106       .  S
C1675      H1688   1.111       .  S
C1689      C1690   1.403       .  A
C1689      C1694   1.406       .  A
C1689      H1699   1.078       .  S
C1690      C1695   1.525       .  S
C1690      C1691   1.428       .  A
C1691      C1692   1.415       .  A
C1691      C1696   1.495       .  S
C1692      C1693   1.397       .  A
C1692      H1697   1.084       .  S
C1693      C1694   1.418       .  A
C1694      C1698   1.498   1_455  S
C1695      C1700   1.427       .  A
C1695      C1704   1.411       .  A
C1696      H1712   1.105       .  S
C1696      H1713   1.110       .  S
C1696      H1714   1.105       .  S
C1698      H1709   1.107       .  S
C1698      H1710   1.101       .  S
C1698      H1711   1.108   1_655  S
C1700      C1701   1.415       .  A
C1700      C1705   1.509       .  S
C1701      C1702   1.405       .  A
C1701      H1706   1.083       .  S
C1702      C1703   1.407       .  A
C1703      C1704   1.408       .  A
C1703      C1707   1.502       .  S
C1704      H1708   1.076       .  S
C1705      H1715   1.110       .  S
C1705      H1716   1.109       .  S
C1705      H1717   1.108       .  S
C1707      H1718   1.110       .  S
C1707      H1719   1.107       .  S
C1707      H1720   1.106       .  S
C1721      C1722   1.392       .  A
C1721      C1726   1.400       .  A
C1721      H1731   1.075       .  S
C1722      C1727   1.509       .  S
C1722      C1723   1.427       .  A
C1723      C1724   1.407       .  A
C1723      C1728   1.493       .  S
C1724      C1725   1.397       .  A
C1724      H1729   1.085       .  S
C1725      C1726   1.413       .  A
C1726      C1730   1.500       .  S
C1727      C1732   1.407       .  A
C1727      C1736   1.409       .  A
C1728      H1744   1.093       .  S
C1728      H1745   1.109       .  S
C1728      H1746   1.105       .  S
C1730      H1741   1.104       .  S
C1730      H1742   1.101       .  S
C1730      H1743   1.097       .  S
C1732      C1733   1.406       .  A
C1732      C1737   1.485       .  S
C1733      C1734   1.399       .  A
C1733      H1738   1.085       .  S
C1734      C1735   1.414       .  A
C1735      C1736   1.412       .  A
C1735      C1739   1.506       .  S
C1736      H1740   1.080       .  S
C1737      H1747   1.106       .  S
C1737      H1748   1.102       .  S
C1737      H1749   1.106       .  S
C1739      H1750   1.108       .  S
C1739      H1751   1.109       .  S
C1739      H1752   1.110       .  S
C1753      C1754   1.415       .  A
C1753      C1758   1.413       .  A
C1753      H1763   1.082       .  S
C1754      C1759   1.532       .  S
C1754      C1755   1.428       .  A
C1755      C1756   1.402       .  A
C1755      C1760   1.496       .  S
C1756      C1757   1.402       .  A
C1756      H1761   1.085       .  S
C1757      C1758   1.420       .  A
C1758      C1762   1.506       .  S
C1759      C1764   1.431       .  A
C1759      C1768   1.413       .  A
C1760      H1776   1.092       .  S
C1760      H1777   1.109       .  S
C1760      H1778   1.109       .  S
C1762      H1773   1.109       .  S
C1762      H1774   1.108       .  S
C1762      H1775   1.110       .  S
C1764      C1765   1.413       .  A
C1764      C1769   1.502       .  S
C1765      C1766   1.403       .  A
C1765      H1770   1.084       .  S
C1766      C1767   1.412       .  A
C1767      C1768   1.409       .  A
C1768      H1772   1.083       .  S
C1769      H1779   1.110   1_455  S
C1769      H1780   1.102       .  S
C1769      H1781   1.108       .  S
C1771      H1782   1.109       .  S
C1771      H1783   1.108       .  S
C1771      H1784   1.110       .  S
C1785      C1786   1.410       .  A
C1785      C1790   1.407       .  A
C1785      H1795   1.083       .  S
C1786      C1791   1.500       .  S
C1786      C1787   1.416       .  A
C1787      C1788   1.394       .  A
C1787      C1792   1.497       .  S
C1788      C1789   1.394       .  A
C1788      H1793   1.082       .  S
C1789      C1790   1.415       .  A
C1790      C1794   1.504       .  S
C1791      C1796   1.423       .  A
C1791      C1800   1.407       .  A
C1792      H1808   1.108       .  S
C1792      H1809   1.107       .  S
C1792      H1810   1.099       .  S
C1794      H1805   1.111       .  S
C1794      H1806   1.110       .  S
C1794      H1807   1.102   1_455  S
C1796      C1797   1.399       .  A
C1796      C1801   1.493       .  S
C1797      C1798   1.389       .  A
C1797      H1802   1.084       .  S
C1798      C1799   1.391       .  A
C1799      C1800   1.393       .  A
C1800      H1804   1.074       .  S
C1801      H1811   1.106       .  S
C1801      H1812   1.110       .  S
C1801      H1813   1.106       .  S
C1803      H1814   1.108       .  S
C1803      H1815   1.109       .  S
C1803      H1816   1.100       .  S
C1817      C1818   1.396       .  A
C1817      C1822   1.416       .  A
C1817      H1827   1.071       .  S
C1818      C1823   1.503       .  S
C1818      C1819   1.405       .  A
C1819      C1820   1.393       .  A
C1819      C1824   1.472       .  S
C1820      C1821   1.395       .  A
C1820      H1825   1.085       .  S
C1821      C1822   1.418       .  A
C1822      C1826   1.499       .  S
C1823      C1828   1.416       .  A
C1823      C1832   1.401       .  A
C1824      H1840   1.101       .  S
C1824      H1841   1.106       .  S
C1824      H1842   1.105       .  S
C1826      H1837   1.103       .  S
C1826      H1838   1.103       .  S
C1826      H1839   1.110       .  S
C1828      C1829   1.405       .  A
C1828      C1833   1.500       .  S
C1829      C1830   1.402       .  A
C1829      H1834   1.085       .  S
C1830      C1831   1.413       .  A
C1831      C1832   1.412       .  A
C1831      C1835   1.503       .  S
C1832      H1836   1.077       .  S
C1833      H1843   1.108       .  S
C1833      H1844   1.105       .  S
C1833      H1845   1.109       .  S
C1835      H1846   1.105       .  S
C1835      H1847   1.109       .  S
C1835      H1848   1.107       .  S
C1849      C1850   1.405       .  A
C1849      C1854   1.409       .  A
C1849      H1859   1.077   1_455  S
C1850      C1855   1.484       .  S
C1850      C1851   1.398       .  A
C1851      C1852   1.401       .  A
C1851      C1856   1.496       .  S
C1852      C1853   1.404       .  A
C1852      H1857   1.083       .  S
C1853      C1854   1.411       .  A
C1854      C1858   1.503   1_455  S
C1855      C1860   1.405       .  A
C1855      C1864   1.406       .  A
C1856      H1872   1.105       .  S
C1856      H1873   1.104       .  S
C1856      H1874   1.087       .  S
C1858      H1869   1.110       .  S
C1858      H1870   1.102       .  S
C1858      H1871   1.111       .  S
C1860      C1861   1.397       .  A
C1860      C1865   1.486       .  S
C1861      C1862   1.396       .  A
C1861      H1866   1.085       .  S
C1862      C1863   1.412       .  A
C1863      C1864   1.402       .  A
C1863      C1867   1.505       .  S
C1864      H1868   1.082       .  S
C1865      H1875   1.098       .  S
C1865      H1876   1.102       .  S
C1865      H1877   1.105       .  S
C1867      H1878   1.110   1_455  S
C1867      H1879   1.109       .  S
C1867      H1880   1.111       .  S
C1881      C1882   1.405       .  A
C1881      C1886   1.393       .  A
C1881      H1891   1.084       .  S
C1882      C1887   1.492       .  S
C1882      C1883   1.430       .  A
C1883      C1884   1.399       .  A
C1883      C1888   1.512       .  S
C1884      C1885   1.395       .  A
C1885      C1886   1.395       .  A
C1886      C1890   1.506       .  S
C1887      C1892   1.414       .  A
C1887      C1896   1.415       .  A
C1888      H1904   1.105       .  S
C1888      H1905   1.111       .  S
C1890      H1901   1.110       .  S
C1890      H1902   1.104       .  S
C1890      H1903   1.105       .  S
C1892      C1893   1.392       .  A
C1892      C1897   1.496       .  S
C1893      C1894   1.393       .  A
C1893      H1898   1.082       .  S
C1894      C1895   1.402       .  A
C1895      C1896   1.405       .  A
C1895      C1899   1.504       .  S
C1896      H1900   1.083       .  S
C1897      H1907   1.100       .  S
C1897      H1908   1.100       .  S
C1897      H1909   1.110       .  S
C1899      H1910   1.110       .  S
C1899      H1911   1.110       .  S
C1899      H1912   1.110       .  S
C1913      C1914   1.407       .  A
C1913      C1918   1.413       .  A
C1913      H1923   1.082       .  S
C1914      C1919   1.512       .  S
C1914      C1915   1.415       .  A
C1915      C1916   1.411       .  A
C1915      C1920   1.498       .  S
C1916      C1917   1.403       .  A
C1916      H1921   1.082       .  S
C1917      C1918   1.418       .  A
C1918      C1922   1.506       .  S
C1919      C1924   1.419       .  A
C1919      C1928   1.415       .  A
C1920      H1936   1.106       .  S
C1920      H1937   1.107       .  S
C1920      H1938   1.099       .  S
C1922      H1933   1.110       .  S
C1922      H1935   1.109       .  S
C1924      C1925   1.404       .  A
C1924      C1929   1.505       .  S
C1925      C1926   1.400       .  A
C1925      H1930   1.083       .  S
C1926      C1927   1.403       .  A
C1927      C1928   1.409       .  A
C1927      C1931   1.505       .  S
C1928      H1932   1.077       .  S
C1929      H1939   1.109       .  S
C1929      H1940   1.106       .  S
C1929      H1941   1.097       .  S
C1931      H1942   1.110       .  S
C1931      H1943   1.110       .  S
C1931      H1944   1.110       .  S
C1945      C1946   1.409       .  A
C1945      C1950   1.406       .  A
C1945      H1955   1.078       .  S
C1946      C1951   1.504       .  S
C1946      C1947   1.425       .  A
C1947      C1948   1.401       .  A
C1947      C1952   1.505       .  S
C1948      C1949   1.393       .  A
C1948      H1953   1.081       .  S
C1949      C1950   1.407       .  A
C1950      C1954   1.505       .  S
C1951      C1956   1.427       .  A
C1951      C1960   1.406       .  A
C1952      H1968   1.096       .  S
C1952      H1969   1.096       .  S
C1952      H4074   1.101   1_455  S
C1954      H1965   1.109       .  S
C1954      H1966   1.110       .  S
C1954      H1967   1.108       .  S
C1956      C1957   1.399       .  A
C1956      C1961   1.502       .  S
C1957      C1958   1.395       .  A
C1957      H1962   1.086       .  S
C1958      C1959   1.398       .  A
C1959      C1960   1.400       .  A
C1959      C1963   1.505       .  S
C1960      H1964   1.073       .  S
C1961      H1971   1.109   1_455  S
C1961      H1972   1.108       .  S
C1961      H1973   1.098       .  S
C1963      H1974   1.102       .  S
C1963      H1975   1.110       .  S
C1963      H1976   1.107       .  S
H1970      C4056   1.099       .  S
C1977      C1978   1.408       .  A
C1977      C1982   1.397       .  A
C1977      H1987   1.069       .  S
C1978      C1983   1.489       .  S
C1978      C1979   1.416       .  A
C1979      C1980   1.394       .  A
C1979      C1984   1.499       .  S
C1980      C1981   1.392       .  A
C1980      H1985   1.085       .  S
C1981      C1982   1.402       .  A
C1982      C1986   1.507       .  S
C1983      C1988   1.417       .  A
C1983      C1992   1.401       .  A
C1984      H2000   1.105       .  S
C1984      H2001   1.101       .  S
C1984      H4106   1.103       .  S
C1986      H1997   1.111       .  S
C1986      H1998   1.110       .  S
C1986      H1999   1.108       .  S
C1988      C1989   1.401       .  A
C1988      C1993   1.507       .  S
C1989      C1990   1.407       .  A
C1989      H1994   1.084       .  S
C1990      C1991   1.423       .  A
C1991      C1992   1.402       .  A
C1991      C1995   1.508       .  S
C1992      H1996   1.084       .  S
C1993      H2003   1.107       .  S
C1993      H2004   1.108       .  S
C1993      H2005   1.102       .  S
C1995      H2006   1.110       .  S
C1995      H2007   1.110       .  S
C1995      H2008   1.111       .  S
H2002      C4088   1.101       .  S
C2009      C2010   1.397       .  A
C2009      C2014   1.404       .  A
C2009      H2019   1.064       .  S
C2010      C2015   1.506       .  S
C2010      C2011   1.410       .  A
C2011      C2012   1.411       .  A
C2011      C2016   1.488       .  S
C2012      C2013   1.401       .  A
C2012      H2017   1.084       .  S
C2013      C2014   1.405       .  A
C2014      C2018   1.506       .  S
C2015      C2020   1.421       .  A
C2015      C2024   1.403       .  A
C2016      H2032   1.106       .  S
C2016      H2033   1.108       .  S
C2016      H2034   1.105       .  S
C2018      H2029   1.102       .  S
C2018      H2030   1.107       .  S
C2018      H2031   1.108       .  S
C2020      C2021   1.401       .  A
C2020      C2025   1.499       .  S
C2021      C2022   1.403       .  A
C2021      H2026   1.085       .  S
C2022      C2023   1.415       .  A
C2023      C2024   1.404       .  A
C2023      C2027   1.507       .  S
C2024      H2028   1.070       .  S
C2025      H2035   1.107       .  S
C2025      H2036   1.110       .  S
C2025      H2037   1.100       .  S
C2027      H2038   1.105       .  S
C2027      H2039   1.110       .  S
C2027      H2040   1.108       .  S
C2041      C2042   1.399       .  A
C2041      C2046   1.392       .  A
C2041      H2051   1.071       .  S
C2042      C2047   1.496       .  S
C2042      C2043   1.417       .  A
C2043      C2044   1.407       .  A
C2043      C2048   1.499       .  S
C2044      C2045   1.404       .  A
C2044      H2049   1.085       .  S
C2045      C2046   1.404       .  A
C2046      C2050   1.505       .  S
C2047      C2052   1.413       .  A
C2047      C2056   1.410       .  A
C2048      H2064   1.103       .  S
C2048      H2065   1.104       .  S
C2048      H2066   1.107       .  S
C2050      H2061   1.107       .  S
C2050      H4166   1.110       .  S
C2050      H4167   1.108       .  S
C2052      C2053   1.395       .  A
C2052      C2057   1.503       .  S
C2053      C2054   1.401       .  A
C2053      H2058   1.084       .  S
C2054      C2055   1.410       .  A
C2055      C2056   1.415       .  A
C2055      C2059   1.502       .  S
C2056      H2060   1.079       .  S
C2057      H2067   1.109       .  S
C2057      H2068   1.101       .  S
C2057      H2069   1.106       .  S
C2059      H2070   1.108       .  S
C2059      H2071   1.110       .  S
C2059      H2072   1.109       .  S
H2062      C4154   1.109       .  S
H2063      C4154   1.108       .  S
C2073      C2074   1.398       .  A
C2073      C2078   1.392       .  A
C2073      H2083   1.075       .  S
C2074      C2079   1.509       .  S
C2074      C2075   1.434       .  A
C2075      C2076   1.413       .  A
C2075      C2080   1.511       .  S
C2076      C2077   1.403       .  A
C2076      H2081   1.084       .  S
C2077      C2078   1.405       .  A
C2078      C2082   1.502       .  S
C2079      C2084   1.437       .  A
C2079      C2088   1.410       .  A
C2080      H2096   1.098       .  S
C2080      H2097   1.107       .  S
C2080      H2098   1.111       .  S
C2082      H2093   1.109       .  S
C2082      H2094   1.106       .  S
C2082      H2095   1.111       .  S
C2084      C2085   1.394       .  A
C2084      C2089   1.517       .  S
C2085      C2086   1.392       .  A
C2085      H2090   1.082       .  S
C2086      C2087   1.408       .  A
C2087      C2088   1.404       .  A
C2087      C2091   1.505       .  S
C2088      H2092   1.079       .  S
C2089      H2099   1.110       .  S
C2089      H2100   1.108       .  S
C2089      H2101   1.103       .  S
C2091      H2102   1.109       .  S
C2091      H2103   1.110       .  S
C2091      H2104   1.107       .  S
O2105     Ni2111   1.967   1_556  S
O2105      C2126   1.292       .  A
O2106     Ni2129   1.991       .  S
O2106      C2115   1.327       .  A
O2107     Ni2111   1.819       .  S
O2107     Ni2129   1.877       .  S
O2107     Ni2123   1.871   1_554  S
O2107      H2130   0.963   1_554  S
C2108      O2125   1.320       .  A
C2108      O2117   1.299       .  A
C2108      C2232   1.558       .  S
O2109     Ni2128   1.934   1_554  S
O2109      C2115   1.286       .  A
O2110     Ni2128   1.969       .  S
O2110      C2112   1.284       .  A
Ni2111     O2114   2.018       .  S
Ni2111     O2116   1.950       .  S
C2112      O2122   1.286       .  A
C2112      C2240   1.534       .  S
O2113     Ni2129   1.988       .  S
O2113      C2119   1.304       .  A
O2114      C2119   1.313       .  A
C2115      C2350   1.505       .  S
O2116      C2118   1.272       .  A
O2117     Ni2128   2.000       .  S
C2118      O2124   1.315       .  A
C2118      C2365   1.558       .  S
C2119      C2382   1.535       .  S
H2120      O2121   0.965   1_554  S
O2121     Ni2129   1.870   1_556  S
O2121     Ni2123   1.833       .  S
O2121     Ni2128   1.838       .  S
O2122     Ni2123   1.990       .  S
Ni2123     O2127   1.945       .  S
Ni2123     O2125   1.987       .  S
O2124     Ni2129   2.010       .  S
C2126      O2127   1.303       .  A
C2126      C2216   1.507       .  S
O2131     Ni2137   1.897       .  S
O2131      C2152   1.276       .  A
O2132     Ni2155   1.973       .  S
O2132      C2141   1.303       .  A
O2133     Ni2137   1.918       .  S
O2133     Ni2155   1.893       .  S
O2133     Ni2149   1.850       .  S
O2133      H2156   0.969       .  S
C2134      O2151   1.301       .  A
C2134      O2143   1.294       .  A
C2134      C2373   1.526       .  S
O2135     Ni2154   1.960       .  S
O2135      C2141   1.288       .  A
O2136     Ni2154   1.922       .  S
O2136      C2138   1.267       .  A
Ni2137     O2140   1.952       .  S
Ni2137     O2142   1.947       .  S
C2138      O2148   1.300       .  A
C2138      C2357   1.530       .  S
O2139     Ni2155   2.005       .  S
O2139      C2145   1.321       .  A
O2140      C2145   1.291       .  A
C2141      C2223   1.520       .  S
O2142      C2144   1.262       .  A
O2143     Ni2154   1.986       .  S
C2144      O2150   1.262       .  A
C2144      C2200   1.510       .  S
C2145      C2208   1.538       .  S
H2146      O2147   0.964       .  S
O2147     Ni2155   1.935       .  S
O2147     Ni2149   1.903       .  S
O2147     Ni2154   1.884       .  S
O2148     Ni2149   1.999       .  S
Ni2149     O2153   2.025       .  S
Ni2149     O2151   1.966       .  S
O2150     Ni2155   1.929       .  S
C2152      O2153   1.324       .  A
C2152      C2327   1.534       .  S
O2157     Ni3217   1.902   1_545  S
O2157      C2167   1.276       .  A
O2158     Ni2165   1.888       .  S
O2158      C2168   1.276       .  A
O2159     Ni2165   1.912       .  S
O2159      C2169   1.279       .  A
O2160     Ni3217   1.911   1_545  S
O2160      C2170   1.280       .  A
O2161     Ni3218   1.926   1_545  S
O2161      C2170   1.283       .  A
O2162     Ni2166   1.917       .  S
O2162      C2169   1.282       .  A
O2163     Ni2166   1.924       .  S
O2163      C2168   1.282       .  A
O2164     Ni3218   1.922   1_545  S
O2164      C2167   1.285       .  A
Ni2165     O3209   1.897       .  S
Ni2165     O3212   1.913       .  S
Ni2165    Ni2166   2.383       .  S
Ni2166     O3213   1.923       .  S
Ni2166     O3216   1.919       .  S
C2167      C3042   1.494       .  S
C2168      C3129   1.476       .  S
C2169      C3074   1.490       .  S
C2170      C3106   1.483       .  S
O2171     Ni2179   1.923       .  S
O2171      C2181   1.281       .  A
O2172     Ni2179   1.928       .  S
O2172      C2182   1.284       .  A
O2173     Ni2179   1.904       .  S
O2173      C2183   1.279       .  A
O2174     Ni2179   1.905       .  S
O2174      C2184   1.277       .  A
O2175     Ni2180   1.903       .  S
O2175      C2184   1.278       .  A
O2176     Ni2180   1.897       .  S
O2176      C2183   1.277       .  A
O2177     Ni2180   1.916       .  S
O2177      C2182   1.281       .  A
O2178     Ni2180   1.916       .  S
O2178      C2181   1.281       .  A
Ni2179    Ni2180   2.392       .  S
C2181      C2978   1.474       .  S
C2182      C2905   1.486       .  S
C2183      C3010   1.463       .  S
C2184      C2946   1.453       .  S
O2185      C2195   1.283       .  A
O2186     Ni2193   1.910       .  S
O2186      C2196   1.284       .  A
O2187     Ni2193   1.915       .  S
O2187      C2197   1.280       .  A
O2188      C2198   1.280       .  A
O2189      C2198   1.282       .  A
O2190     Ni2194   1.914       .  S
O2190      C2197   1.279       .  A
O2191     Ni2194   1.924       .  S
O2191      C2196   1.280       .  A
O2192      C2195   1.281       .  A
Ni2193    Ni2194   2.384       .  S
C2195      C2809   1.493       .  S
C2196      C2873   1.497       .  S
C2197      C2777   1.473       .  S
C2198      C2841   1.482       .  S
C2199      C2261   1.519       .  S
C2199      C2204   1.411       .  A
C2200      C2201   1.413       .  A
C2201      C2202   1.387       .  A
C2201      H2206   1.088       .  S
C2202      C3097   1.488       .  S
C2203      C3001   1.476       .  S
C2203      C2204   1.383       .  A
C2204      H2205   1.086       .  S
C2207      C2257   1.534       .  S
C2207      C3260   1.479       .  A
C2207      C2212   1.413       .  A
C2208      C3259   1.478   1_545  A
C2208      C2209   1.427       .  A
C2209      C2210   1.405       .  A
C2209      H2214   1.082       .  S
C2210      C2969   1.503       .  S
C2210      C3263   1.403   1_545  A
C2211      C2850   1.473       .  S
C2211      C3262   1.402       .  A
C2211      C2212   1.389       .  A
C2212      H2213   1.084       .  S
C2215      C2283   1.518       .  S
C2215      C2216   1.455       .  A
C2215      C2220   1.427       .  A
C2216      C2217   1.411       .  A
C2217      C2218   1.388       .  A
C2217      H2222   1.086       .  S
C2218      C2786   1.490       .  S
C2218      C2219   1.408       .  A
C2219      C3065   1.496       .  S
C2219      C2220   1.410       .  A
C2220      H2221   1.084       .  S
C2223      C2224   1.471       .  A
C2223      C2228   1.419       .  A
C2224      C2260   1.534       .  S
C2224      C2225   1.407       .  A
C2225      C2226   1.398       .  A
C2225      H2230   1.085       .  S
C2226      C3138   1.480       .  S
C2226      C2227   1.412       .  A
C2227      C2882   1.507       .  S
C2227      C2228   1.400       .  A
C2228      H2229   1.086       .  S
C2231      C2286   1.528       .  S
C2231      C3284   1.483       .  A
C2231      C2236   1.426       .  A
C2232      C3283   1.488   1_545  A
C2232      C2233   1.411       .  A
C2233      C2234   1.388       .  A
C2233      H2238   1.083       .  S
C2234      C2937   1.459       .  S
C2234      C3287   1.399   1_545  A
C2235      C2818   1.506       .  S
C2235      C3286   1.401       .  A
C2235      C2236   1.397       .  A
C2236      H2237   1.086       .  S
C2239      C2287   1.537       .  S
C2239      C2244   1.418       .  A
C2240      C2241   1.408       .  A
C2241      C2242   1.379       .  A
C2241      H2246   1.089       .  S
C2242      C3033   1.466       .  S
C2243      C2914   1.480       .  S
C2243      C2244   1.385       .  A
C2244      H2245   1.085       .  S
O2247     Ni2253   1.956       .  S
O2247      C2268   1.286       .  A
O2248     Ni2271   2.021       .  S
O2248      C2257   1.322       .  A
O2249     Ni2253   1.889       .  S
O2249     Ni2271   1.902       .  S
O2249     Ni2265   1.930       .  S
O2249      H2272   0.965       .  S
C2250      O2267   1.322       .  A
C2250      O2259   1.289       .  A
C2250      C2328   1.532       .  S
O2251     Ni2270   1.895       .  S
O2251      C2257   1.275       .  A
O2252     Ni2270   1.941       .  S
O2252      C2254   1.262       .  A
Ni2253     O2256   1.984       .  S
Ni2253     O2258   1.926       .  S
C2254      O2264   1.269       .  A
C2254      C2374   1.520       .  S
O2255     Ni2271   1.945       .  S
O2255      C2261   1.299       .  A
O2256      C2261   1.292       .  A
O2258      C2260   1.268       .  A
O2259     Ni2270   1.945       .  S
C2260      O2266   1.301       .  A
H2262      O2263   0.970       .  S
O2263     Ni2271   1.850       .  S
O2263     Ni2265   1.896       .  S
O2263     Ni2270   1.923       .  S
O2264     Ni2265   1.960       .  S
Ni2265     O2269   1.992       .  S
Ni2265     O2267   2.000       .  S
O2266     Ni2271   2.005       .  S
C2268      O2269   1.308       .  A
C2268      C2358   1.530       .  S
O2273     Ni2279   1.952   1_554  S
O2273      C2294   1.290       .  A
O2274     Ni2297   1.977       .  S
O2274      C2283   1.310       .  A
O2275     Ni2279   1.843       .  S
O2275     Ni2297   1.853       .  S
O2275     Ni2291   1.871   1_556  S
O2275      H2298   0.966       .  S
C2276      O2293   1.301       .  A
C2276      O2285   1.308       .  A
C2276      C2349   1.519       .  S
O2277     Ni2296   1.958   1_556  S
O2277      C2283   1.292       .  A
O2278     Ni2296   1.951       .  S
O2278      C2280   1.275       .  A
Ni2279     O2282   1.985       .  S
Ni2279     O2284   1.979       .  S
C2280      O2290   1.315       .  A
C2280      C2366   1.555       .  S
O2281     Ni2297   1.987       .  S
O2281      C2287   1.325       .  A
O2282      C2287   1.298       .  A
O2284      C2286   1.283       .  A
O2285     Ni2296   2.005       .  S
C2286      O2292   1.277       .  A
H2288      O2289   0.960   1_556  S
O2289     Ni2297   1.870   1_554  S
O2289     Ni2291   1.878       .  S
O2289     Ni2296   1.816       .  S
O2290     Ni2291   2.005       .  S
Ni2291     O2295   2.006       .  S
Ni2291     O2293   1.978       .  S
O2292     Ni2297   1.965       .  S
C2294      O2295   1.328       .  A
C2294      C2381   1.529       .  S
O2299      C2309   1.278       .  A
O2300     Ni2307   1.905       .  S
O2300      C2310   1.278       .  A
O2301     Ni2307   1.953       .  S
O2301      C2311   1.289       .  A
O2302      C2312   1.286       .  A
O2303      C2312   1.272       .  A
O2304     Ni2308   1.908       .  S
O2304      C2311   1.277       .  A
O2305     Ni2308   1.932       .  S
O2305      C2310   1.287       .  A
O2306      C2309   1.284       .  A
Ni2307    Ni2308   2.379       .  S
C2309      C2690   1.480       .  S
C2310      C2713   1.503       .  S
C2311      C2745   1.497       .  S
C2312      C2649   1.484       .  S
O2313     Ni2321   1.902       .  S
O2313      C2323   1.277       .  A
O2314     Ni2321   1.886       .  S
O2314      C2324   1.276       .  A
O2315     Ni2321   1.901       .  S
O2315      C2325   1.280       .  A
O2316     Ni2321   1.909       .  S
O2316      C2326   1.277       .  A
O2317     Ni2322   1.906       .  S
O2317      C2326   1.281       .  A
O2318     Ni2322   1.914       .  S
O2318      C2325   1.280       .  A
O2319     Ni2322   1.891       .  S
O2319      C2324   1.277       .  A
O2320     Ni2322   1.896       .  S
O2320      C2323   1.277       .  A
Ni2321    Ni2322   2.390       .  S
C2323      C2521   1.486       .  S
C2324      C2626   1.467       .  S
C2325      C2594   1.480       .  S
C2326      C2562   1.468       .  S
C2327      C3380   1.476   1_545  A
C2327      C2332   1.414       .  A
C2328      C3379   1.476       .  A
C2328      C2329   1.420       .  A
C2329      C2330   1.401       .  A
C2329      H2334   1.082       .  S
C2330      C2585   1.501       .  S
C2330      C3383   1.410       .  A
C2331      C2658   1.488       .  S
C2331      C3382   1.409   1_545  A
C2331      C2332   1.397       .  A
C2332      H2333   1.084       .  S
O2335     Ni3395   1.914       .  S
O2335      C2345   1.281       .  A
O2336     Ni2343   1.904       .  S
O2336      C2346   1.282       .  A
O2337     Ni2343   1.908       .  S
O2337      C2347   1.277       .  A
O2338     Ni3395   1.910       .  S
O2338      C2348   1.278       .  A
O2339     Ni3396   1.925       .  S
O2339      C2348   1.284       .  A
O2340     Ni2344   1.923       .  S
O2340      C2347   1.282       .  A
O2341     Ni2344   1.907       .  S
O2341      C2346   1.277       .  A
O2342     Ni3396   1.911       .  S
O2342      C2345   1.279       .  A
Ni2343     O3387   1.911   1_545  S
Ni2343     O3390   1.911   1_545  S
Ni2343    Ni2344   2.383       .  S
Ni2344     O3391   1.926   1_545  S
Ni2344     O3394   1.917   1_545  S
C2345      C2434   1.477       .  S
C2346      C2457   1.484       .  S
C2347      C2489   1.492       .  S
C2348      C2393   1.477       .  S
C2349      C3402   1.477       .  A
C2349      C2354   1.404       .  A
C2350      C3401   1.474   1_545  A
C2350      C2351   1.411       .  A
C2351      C2352   1.381       .  A
C2351      H2356   1.084       .  S
C2352      C2681   1.484       .  S
C2352      C3405   1.401   1_545  A
C2353      C2617   1.463       .  S
C2353      C3404   1.401       .  A
C2353      C2354   1.384       .  A
C2354      H2355   1.087       .  S
C2357      C2358   1.477       .  A
C2357      C2362   1.408       .  A
C2358      C2359   1.415       .  A
C2359      C2360   1.399       .  A
C2359      H2364   1.086       .  S
C2360      C2722   1.489       .  S
C2360      C2361   1.404       .  A
C2361      C2466   1.476       .  S
C2361      C2362   1.388       .  A
C2362      H2363   1.085       .  S
C2365      C2366   1.498       .  A
C2365      C2370   1.417       .  A
C2366      C2367   1.431       .  A
C2367      C2368   1.403       .  A
C2367      H2372   1.082       .  S
C2368      C2754   1.512       .  S
C2368      C2369   1.405       .  A
C2369      C2498   1.483       .  S
C2369      C2370   1.397       .  A
C2370      H2371   1.084       .  S
C2373      C2378   1.412       .  A
C2374      C2375   1.409       .  A
C2375      C2376   1.386       .  A
C2375      H2380   1.087       .  S
C2376      C2402   1.497       .  S
C2377      C2530   1.491       .  S
C2377      C2378   1.394       .  A
C2378      H2379   1.086       .  S
C2381      C2386   1.419       .  A
C2382      C2383   1.411       .  A
C2383      C2384   1.394       .  A
C2383      H2388   1.086       .  S
C2384      C2553   1.480       .  S
C2385      C2425   1.491       .  S
C2385      C2386   1.395       .  A
C2386      H2387   1.084       .  S
C2389      C2390   1.405       .  A
C2389      C2394   1.410       .  A
C2389      H2399   1.080       .  S
C2390      C2395   1.481       .  S
C2390      C2391   1.404       .  A
C2391      C2392   1.397       .  A
C2391      C2396   1.508       .  S
C2392      C2393   1.402       .  A
C2392      H2397   1.076       .  S
C2393      C2394   1.414       .  A
C2394      C2398   1.506       .  S
C2395      C2400   1.405       .  A
C2395      C2404   1.396       .  A
C2396      H2412   1.104       .  S
C2396      H2413   1.104       .  S
C2396      H2414   1.101       .  S
C2398      H2409   1.109       .  S
C2398      H2410   1.111       .  S
C2398      H2411   1.110       .  S
C2400      C2401   1.398       .  A
C2400      C2405   1.493       .  S
C2401      C2402   1.401       .  A
C2402      C2403   1.423       .  A
C2403      C2404   1.407       .  A
C2403      C2407   1.505       .  S
C2404      H2408   1.084       .  S
C2405      H2416   1.098       .  S
C2405      H2417   1.101       .  S
C2407      H2418   1.106       .  S
C2407      H2419   1.110       .  S
C2407      H2420   1.108       .  S
C2421      C2422   1.409       .  A
C2421      C2426   1.399       .  A
C2421      H2431   1.084       .  S
C2422      C2427   1.507       .  S
C2422      C2423   1.418       .  A
C2423      C2424   1.412       .  A
C2423      C2428   1.504       .  S
C2424      C2425   1.404       .  A
C2424      H2429   1.084       .  S
C2425      C2426   1.412       .  A
C2426      C2430   1.509       .  S
C2427      C2432   1.422       .  A
C2427      C2436   1.405       .  A
C2428      H2444   1.106       .  S
C2428      H2445   1.090       .  S
C2428      H2446   1.109       .  S
C2430      H2441   1.109       .  S
C2430      H2442   1.110       .  S
C2430      H2443   1.107       .  S
C2432      C2433   1.404       .  A
C2432      C2437   1.495       .  S
C2433      C2434   1.398       .  A
C2433      H2438   1.085       .  S
C2434      C2435   1.410       .  A
C2435      C2436   1.398       .  A
C2435      C2439   1.503       .  S
C2436      H2440   1.079       .  S
C2437      H2447   1.110       .  S
C2437      H2448   1.103       .  S
C2437      H2449   1.102       .  S
C2439      H2450   1.107       .  S
C2439      H2451   1.106       .  S
C2439      H2452   1.105       .  S
C2453      C2454   1.398       .  A
C2453      C2458   1.406       .  A
C2453      H2463   1.080       .  S
C2454      C2459   1.494       .  S
C2454      C2455   1.411       .  A
C2455      C2456   1.394       .  A
C2455      C2460   1.482       .  S
C2456      C2457   1.396       .  A
C2456      H2461   1.085       .  S
C2457      C2458   1.418       .  A
C2458      C2462   1.500       .  S
C2459      C2464   1.419       .  A
C2459      C2468   1.398       .  A
C2460      H2476   1.102       .  S
C2460      H2477   1.110       .  S
C2460      H2478   1.107       .  S
C2462      H2473   1.101       .  S
C2462      H2474   1.110       .  S
C2462      H2475   1.105       .  S
C2464      C2465   1.403       .  A
C2464      C2469   1.496       .  S
C2465      C2466   1.398       .  A
C2465      H2470   1.084       .  S
C2466      C2467   1.411       .  A
C2467      C2468   1.394       .  A
C2467      C2471   1.507       .  S
C2468      H2472   1.077       .  S
C2469      H2479   1.110       .  S
C2469      H2480   1.110       .  S
C2469      H2481   1.099       .  S
C2471      H2482   1.110       .  S
C2471      H2483   1.107       .  S
C2471      H2484   1.108       .  S
C2485      C2486   1.399       .  A
C2485      C2490   1.400       .  A
C2485      H2495   1.080       .  S
C2486      C2491   1.492       .  S
C2486      C2487   1.410       .  A
C2487      C2488   1.407       .  A
C2487      C2492   1.503       .  S
C2488      C2489   1.409       .  A
C2488      H2493   1.080       .  S
C2489      C2490   1.420       .  A
C2490      C2494   1.511       .  S
C2491      C2496   1.418       .  A
C2491      C2500   1.405       .  A
C2492      H2508   1.107       .  S
C2492      H2509   1.108       .  S
C2492      H2510   1.107       .  S
C2494      H2505   1.106       .  S
C2494      H2506   1.106       .  S
C2494      H2507   1.110       .  S
C2496      C2497   1.402       .  A
C2496      C2501   1.513       .  S
C2497      C2498   1.398       .  A
C2497      H2502   1.083       .  S
C2498      C2499   1.407       .  A
C2499      C2500   1.404       .  A
C2499      C2503   1.506       .  S
C2500      H2504   1.077       .  S
C2501      H2511   1.110       .  S
C2501      H2512   1.104       .  S
C2501      H2513   1.108       .  S
C2503      H2514   1.107       .  S
C2503      H2515   1.109       .  S
C2503      H2516   1.107       .  S
C2517      C2518   1.396       .  A
C2517      C2522   1.405       .  A
C2517      H2527   1.081       .  S
C2518      C2523   1.480       .  S
C2518      C2519   1.403       .  A
C2519      C2520   1.394       .  A
C2519      C2524   1.502       .  S
C2520      C2521   1.414       .  A
C2520      H2525   1.083       .  S
C2521      C2522   1.423       .  A
C2522      C2526   1.511   1_655  S
C2523      C2528   1.413       .  A
C2523      C2532   1.402       .  A
C2524      H2540   1.106       .  S
C2524      H2541   1.109       .  S
C2524      H2542   1.109       .  S
C2526      H2537   1.111       .  S
C2526      H2538   1.111       .  S
C2526      H2539   1.109   1_455  S
C2528      C2529   1.396       .  A
C2528      C2533   1.511       .  S
C2529      C2530   1.397       .  A
C2530      C2531   1.419       .  A
C2531      C2532   1.409       .  A
C2531      C2535   1.506       .  S
C2532      H2536   1.082       .  S
C2533      H2544   1.104       .  S
C2533      H2545   1.106       .  S
C2535      H2546   1.111       .  S
C2535      H2547   1.110       .  S
C2535      H2548   1.109       .  S
C2549      C2550   1.413       .  A
C2549      C2554   1.407       .  A
C2549      H2559   1.083       .  S
C2550      C2555   1.496       .  S
C2550      C2551   1.422   1_655  A
C2551      C2552   1.399       .  A
C2551      C2556   1.508       .  S
C2552      C2553   1.397   1_455  A
C2552      H2557   1.083       .  S
C2553      C2554   1.405       .  A
C2555      C2560   1.417       .  A
C2555      C2564   1.399       .  A
C2556      H2572   1.099       .  S
C2556      H2573   1.110       .  S
C2556      H2574   1.110       .  S
C2558      H2569   1.109       .  S
C2558      H2570   1.109       .  S
C2558      H2571   1.110       .  S
C2560      C2561   1.393       .  A
C2560      C2565   1.483       .  S
C2561      C2562   1.388       .  A
C2561      H2566   1.086       .  S
C2562      C2563   1.421       .  A
C2563      C2564   1.403       .  A
C2563      C2567   1.502       .  S
C2564      H2568   1.085       .  S
C2565      H2575   1.110   1_655  S
C2565      H2576   1.104   1_655  S
C2565      H2577   1.106       .  S
C2567      H2578   1.111   1_655  S
C2567      H2579   1.101       .  S
C2567      H2580   1.105       .  S
C2581      C2582   1.400       .  A
C2581      C2586   1.410       .  A
C2581      H2591   1.082       .  S
C2582      C2587   1.482       .  S
C2582      C2583   1.404       .  A
C2583      C2584   1.401       .  A
C2583      C2588   1.504       .  S
C2584      C2585   1.405       .  A
C2584      H2589   1.082       .  S
C2585      C2586   1.422       .  A
C2586      C2590   1.507       .  S
C2587      C2592   1.406       .  A
C2587      C2596   1.398       .  A
C2588      H2604   1.108       .  S
C2588      H2605   1.101       .  S
C2588      H2606   1.102       .  S
C2590      H2601   1.111       .  S
C2590      H2602   1.106       .  S
C2590      H2603   1.108       .  S
C2592      C2593   1.394       .  A
C2592      C2597   1.499       .  S
C2593      C2594   1.405       .  A
C2593      H2598   1.083       .  S
C2594      C2595   1.415       .  A
C2595      C2596   1.404       .  A
C2595      C2599   1.506       .  S
C2596      H2600   1.073       .  S
C2597      H2607   1.109       .  S
C2597      H2608   1.109       .  S
C2597      H2609   1.101       .  S
C2599      H2610   1.108       .  S
C2599      H2611   1.109       .  S
C2599      H2612   1.110       .  S
C2613      C2614   1.402       .  A
C2613      C2618   1.397       .  A
C2613      H2623   1.084       .  S
C2614      C2619   1.464       .  S
C2614      C2615   1.406       .  A
C2615      C2616   1.386       .  A
C2615      C2620   1.498       .  S
C2616      C2617   1.395       .  A
C2616      H2621   1.083       .  S
C2617      C2618   1.413       .  A
C2618      C2622   1.507       .  S
C2619      C2624   1.401       .  A
C2619      C2628   1.394       .  A
C2620      H2636   1.105       .  S
C2620      H2637   1.101       .  S
C2620      H2638   1.085       .  S
C2622      H2633   1.111       .  S
C2622      H2634   1.111       .  S
C2622      H2635   1.106       .  S
C2624      C2625   1.392       .  A
C2624      C2629   1.495       .  S
C2625      C2626   1.401       .  A
C2625      H2630   1.084       .  S
C2626      C2627   1.412       .  A
C2627      C2628   1.395       .  A
C2627      C2631   1.493       .  S
C2628      H2632   1.080       .  S
C2629      H2639   1.107       .  S
C2629      H2640   1.102       .  S
C2629      H2641   1.100       .  S
C2631      H2642   1.095       .  S
C2631      H2643   1.105       .  S
C2631      H2644   1.107       .  S
C2645      C2646   1.395       .  A
C2645      C2650   1.400       .  A
C2645      H2655   1.072       .  S
C2646      C2651   1.488       .  S
C2646      C2647   1.408       .  A
C2647      C2648   1.412       .  A
C2647      C2652   1.503   1_655  S
C2648      C2649   1.411       .  A
C2648      H2653   1.083   1_655  S
C2649      C2650   1.417       .  A
C2650      C2654   1.512       .  S
C2651      C2656   1.407       .  A
C2651      C2660   1.401       .  A
C2652      H2668   1.098       .  S
C2652      H2669   1.104   1_455  S
C2652      H2670   1.108       .  S
C2654      H2665   1.105       .  S
C2654      H2666   1.109       .  S
C2654      H2667   1.111       .  S
C2656      C2657   1.400       .  A
C2656      C2661   1.491       .  S
C2657      C2658   1.400       .  A
C2657      H2662   1.085       .  S
C2658      C2659   1.414       .  A
C2659      C2660   1.402       .  A
C2659      C3715   1.504       .  S
C2660      H2664   1.076       .  S
C2661      H2671   1.100       .  S
C2661      H2672   1.104       .  S
C2661      H2673   1.091       .  S
C2663      C3711   1.504       .  S
C2663      H2674   1.110       .  S
C2663      H2675   1.107       .  S
C2663      H2676   1.111       .  S
C2677      C2678   1.400       .  A
C2677      C2682   1.405       .  A
C2677      H2687   1.081       .  S
C2678      C2683   1.490       .  S
C2678      C2679   1.423       .  A
C2679      C2680   1.395       .  A
C2679      C2684   1.505       .  S
C2680      C2681   1.396       .  A
C2680      H2685   1.085       .  S
C2681      C2682   1.412       .  A
C2682      C2686   1.501       .  S
C2683      C2688   1.401       .  A
C2683      C2692   1.408       .  A
C2684      H2700   1.100       .  S
C2684      H2701   1.110       .  S
C2684      H2702   1.110       .  S
C2686      H2697   1.101       .  S
C2686      H2698   1.108       .  S
C2686      H2699   1.105       .  S
C2688      C2689   1.400       .  A
C2688      C2693   1.495       .  S
C2689      C2690   1.402       .  A
C2689      H2694   1.084       .  S
C2690      C2691   1.412       .  A
C2691      C2692   1.415       .  A
C2691      C2695   1.504       .  S
C2692      H2696   1.082       .  S
C2693      H2703   1.103       .  S
C2693      H2704   1.078       .  S
C2693      H2705   1.098       .  S
C2695      H2706   1.110       .  S
C2695      H2707   1.106       .  S
C2695      H2708   1.104       .  S
C2709      C2710   1.402       .  A
C2709      C2714   1.409       .  A
C2709      H2719   1.082       .  S
C2710      C2715   1.505       .  S
C2710      C2711   1.417       .  A
C2711      C2712   1.410       .  A
C2711      C2716   1.508       .  S
C2712      C2713   1.411       .  A
C2712      H2717   1.084       .  S
C2713      C2714   1.424       .  A
C2714      C2718   1.508       .  S
C2715      C2720   1.422       .  A
C2715      C2724   1.408       .  A
C2716      H2732   1.098       .  S
C2716      H2733   1.105       .  S
C2716      H2734   1.109       .  S
C2718      H2729   1.110       .  S
C2718      H2730   1.105       .  S
C2718      H2731   1.108       .  S
C2720      C2721   1.399       .  A
C2720      C2725   1.503       .  S
C2721      C2722   1.395       .  A
C2721      H2726   1.081       .  S
C2722      C2723   1.414       .  A
C2723      C2724   1.406       .  A
C2723      C2727   1.508       .  S
C2724      H2728   1.075       .  S
C2725      H2735   1.105       .  S
C2725      H2736   1.102       .  S
C2725      H2737   1.104       .  S
C2727      H2738   1.110       .  S
C2727      H2739   1.106       .  S
C2727      H2740   1.111       .  S
C2741      C2742   1.402       .  A
C2741      C2746   1.407       .  A
C2741      H2751   1.078       .  S
C2742      C2747   1.522       .  S
C2742      C2743   1.427       .  A
C2743      C2744   1.413       .  A
C2743      C2748   1.493       .  S
C2744      C2745   1.396       .  A
C2744      H2749   1.084       .  S
C2745      C2746   1.417       .  A
C2746      C2750   1.497       .  S
C2747      C2752   1.424       .  A
C2747      C2756   1.410       .  A
C2748      H2764   1.104       .  S
C2748      H2765   1.110       .  S
C2748      H2766   1.105       .  S
C2750      H2761   1.105       .  S
C2750      H2762   1.101       .  S
C2750      H2763   1.107       .  S
C2752      C2753   1.415       .  A
C2752      C2757   1.509       .  S
C2753      C2754   1.407       .  A
C2753      H2758   1.083       .  S
C2754      C2755   1.409       .  A
C2755      C2756   1.409       .  A
C2755      C2759   1.503       .  S
C2756      H2760   1.076       .  S
C2757      H2767   1.110       .  S
C2757      H2768   1.108       .  S
C2757      H2769   1.108       .  S
C2759      H2770   1.107       .  S
C2759      H2771   1.109       .  S
C2759      H2772   1.107       .  S
C2773      C2774   1.393       .  A
C2773      C2778   1.396       .  A
C2773      H2783   1.078       .  S
C2774      C2779   1.502       .  S
C2774      C2775   1.427       .  A
C2775      C2776   1.405       .  A
C2775      C2780   1.493       .  S
C2776      C2777   1.395       .  A
C2776      H2781   1.085       .  S
C2777      C2778   1.414       .  A
C2778      C2782   1.499       .  S
C2779      C2784   1.409       .  A
C2779      C2788   1.408       .  A
C2780      H2796   1.094       .  S
C2780      H2797   1.110       .  S
C2780      H2798   1.107       .  S
C2782      H2793   1.105       .  S
C2782      H2794   1.101   1_655  S
C2782      H2795   1.096       .  S
C2784      C2785   1.403       .  A
C2784      C2789   1.488       .  S
C2785      C2786   1.399       .  A
C2785      H2790   1.085       .  S
C2786      C2787   1.410       .  A
C2787      C2788   1.407       .  A
C2787      C2791   1.507       .  S
C2788      H2792   1.079       .  S
C2789      H2799   1.107       .  S
C2789      H2800   1.102       .  S
C2789      H2801   1.105       .  S
C2791      H2802   1.109       .  S
C2791      H2803   1.109       .  S
C2791      H2804   1.109       .  S
C2805      C2806   1.415       .  A
C2805      C2810   1.412       .  A
C2805      H2815   1.082       .  S
C2806      C2811   1.528       .  S
C2806      C2807   1.427       .  A
C2807      C2808   1.400       .  A
C2807      C2812   1.496       .  S
C2808      C2809   1.401       .  A
C2808      H2813   1.085       .  S
C2809      C2810   1.416       .  A
C2810      C2814   1.506       .  S
C2811      C2816   1.431       .  A
C2811      C2820   1.413       .  A
C2812      H2828   1.092       .  S
C2812      H2829   1.110       .  S
C2812      H2830   1.110       .  S
C2814      H2825   1.109       .  S
C2814      H2826   1.109       .  S
C2814      H2827   1.110       .  S
C2816      C2817   1.412       .  A
C2816      C2821   1.503       .  S
C2817      C2818   1.402       .  A
C2817      H2822   1.084       .  S
C2818      C2819   1.412       .  A
C2819      C2820   1.408       .  A
C2819      C3875   1.502       .  S
C2820      H2824   1.083       .  S
C2821      H2831   1.108       .  S
C2821      H2832   1.101       .  S
C2821      H2833   1.107       .  S
C2823      C3871   1.501       .  S
C2823      H2834   1.109       .  S
C2823      H2835   1.108       .  S
C2823      H2836   1.110       .  S
C2837      C2838   1.415       .  A
C2837      C2842   1.408       .  A
C2837      H2847   1.083       .  S
C2838      C2843   1.522       .  S
C2838      C2839   1.427       .  A
C2839      C2840   1.399       .  A
C2839      C2844   1.501       .  S
C2840      C2841   1.394       .  A
C2840      H2845   1.084       .  S
C2841      C2842   1.413       .  A
C2842      C2846   1.506       .  S
C2843      C2848   1.432       .  A
C2843      C2852   1.415       .  A
C2844      H2860   1.109       .  S
C2844      H2861   1.104       .  S
C2844      H2862   1.103       .  S
C2846      H2857   1.111       .  S
C2846      H2858   1.110       .  S
C2846      H2859   1.109       .  S
C2848      C2849   1.401       .  A
C2848      C2853   1.497       .  S
C2849      C2850   1.387       .  A
C2849      H2854   1.084       .  S
C2850      C2851   1.391       .  A
C2851      C2852   1.399       .  A
C2851      C3907   1.497       .  S
C2852      H2856   1.065       .  S
C2853      H2863   1.111       .  S
C2853      H2864   1.111       .  S
C2853      H2865   1.105       .  S
C2855      C3903   1.501       .  S
C2855      H2866   1.109       .  S
C2855      H2867   1.110       .  S
C2855      H2868   1.102       .  S
C2869      C2870   1.403       .  A
C2869      C2874   1.422       .  A
C2869      H2879   1.066       .  S
C2870      C2875   1.521       .  S
C2870      C2871   1.406       .  A
C2871      C2872   1.393       .  A
C2871      C2876   1.465       .  S
C2872      C2873   1.391       .  A
C2872      H2877   1.085       .  S
C2873      C2874   1.418       .  A
C2874      C2878   1.501       .  S
C2875      C2880   1.421       .  A
C2875      C2884   1.404       .  A
C2876      H2892   1.100       .  S
C2876      H2893   1.109       .  S
C2876      H2894   1.101       .  S
C2878      H2889   1.103       .  S
C2878      H2890   1.106       .  S
C2878      H2891   1.110       .  S
C2880      C2881   1.409       .  A
C2880      C2885   1.497       .  S
C2881      C2882   1.401       .  A
C2881      H2886   1.084       .  S
C2882      C2883   1.413       .  A
C2883      C2884   1.416       .  A
C2883      C2887   1.499       .  S
C2884      H2888   1.076       .  S
C2885      H2895   1.110       .  S
C2885      H2896   1.105       .  S
C2885      H2897   1.108       .  S
C2887      H2898   1.105       .  S
C2887      H2899   1.108       .  S
C2887      H2900   1.105       .  S
C2901      C2902   1.403       .  A
C2901      C2906   1.410       .  A
C2901      H2911   1.077       .  S
C2902      C2907   1.481       .  S
C2902      C2903   1.397       .  A
C2903      C2904   1.400       .  A
C2903      C2908   1.495       .  S
C2904      C2905   1.404       .  A
C2904      H2909   1.083       .  S
C2905      C2906   1.414       .  A
C2906      C2910   1.504       .  S
C2907      C2912   1.406       .  A
C2907      C2916   1.404       .  A
C2908      H2924   1.105       .  S
C2908      H2925   1.105       .  S
C2908      H2926   1.085       .  S
C2910      H2921   1.111       .  S
C2910      H2922   1.103       .  S
C2910      H2923   1.111       .  S
C2912      C2913   1.398       .  A
C2912      C2917   1.489       .  S
C2913      C2914   1.395       .  A
C2913      H2918   1.082       .  S
C2914      C2915   1.412       .  A
C2915      C2916   1.401       .  A
C2915      C2919   1.504       .  S
C2916      H2920   1.082       .  S
C2917      H2927   1.103       .  S
C2917      H2928   1.101       .  S
C2917      H2929   1.106       .  S
C2919      H2930   1.110       .  S
C2919      H2931   1.109       .  S
C2919      H2932   1.111       .  S
C2933      C2934   1.404       .  A
C2933      C2938   1.392       .  A
C2933      H2943   1.084       .  S
C2934      C2939   1.483       .  S
C2934      C2935   1.427       .  A
C2935      C2936   1.397       .  A
C2935      C2940   1.512       .  S
C2936      C2937   1.395       .  A
C2936      H3993   1.085       .  S
C2937      C2938   1.396       .  A
C2938      C2942   1.505       .  S
C2939      C2944   1.412       .  A
C2939      C2948   1.413       .  A
C2940      H2956   1.105       .  S
C2940      H2957   1.111       .  S
C2940      H4010   1.111   1_545  S
H2941      C3988   1.085       .  S
C2942      H2953   1.110       .  S
C2942      H2954   1.103       .  S
C2942      H2955   1.105       .  S
C2944      C2945   1.390       .  A
C2944      C2949   1.497       .  S
C2945      C2946   1.393       .  A
C2945      H2950   1.083       .  S
C2946      C2947   1.402       .  A
C2947      C2948   1.404       .  A
C2947      C2951   1.504       .  S
C2948      H2952   1.083       .  S
C2949      H2959   1.099       .  S
C2949      H2960   1.101       .  S
C2949      H2961   1.111       .  S
C2951      H2962   1.111   1_545  S
C2951      H2963   1.110       .  S
C2951      H2964   1.110   1_545  S
H2958      C3992   1.111       .  S
C2965      C2966   1.406       .  A
C2965      C2970   1.411       .  A
C2965      H2975   1.083       .  S
C2966      C2971   1.507       .  S
C2966      C2967   1.414       .  A
C2967      C2968   1.409       .  A
C2967      C2972   1.497       .  S
C2968      C2969   1.402       .  A
C2968      H2973   1.082       .  S
C2969      C2970   1.419       .  A
C2970      C2974   1.506       .  S
C2971      C2976   1.415       .  A
C2971      C2980   1.413       .  A
C2972      H2988   1.107       .  S
C2972      H2989   1.106       .  S
C2972      H2990   1.104       .  S
C2974      H2985   1.110       .  S
C2974      H4038   1.110   1_545  S
C2974      H2987   1.109   1_545  S
C2976      C2977   1.400       .  A
C2976      C2981   1.498       .  S
C2977      C2978   1.396       .  A
C2977      H2982   1.084       .  S
C2978      C2979   1.405       .  A
C2979      C2980   1.410       .  A
C2979      C2983   1.504       .  S
C2980      H2984   1.078   1_545  S
C2981      H2991   1.109       .  S
C2981      H2992   1.106       .  S
C2981      H2993   1.095       .  S
C2983      H2994   1.110   1_545  S
C2983      H2995   1.110       .  S
C2983      H2996   1.110   1_545  S
H2986      C4026   1.109       .  S
C2997      C2998   1.405       .  A
C2997      C3002   1.397       .  A
C2997      H3007   1.072       .  S
C2998      C3003   1.494       .  S
C2998      C2999   1.417       .  A
C2999      C3000   1.400       .  A
C2999      C3004   1.500       .  S
C3000      C3001   1.397       .  A
C3000      H3005   1.084       .  S
C3001      C3002   1.404       .  A
C3002      C3006   1.506       .  S
C3003      C3008   1.426       .  A
C3003      C3012   1.407       .  A
C3004      H3020   1.101       .  S
C3004      H3021   1.104       .  S
C3006      H3017   1.109       .  S
C3006      H3018   1.110       .  S
C3006      H3019   1.106       .  S
C3008      C3009   1.395       .  A
C3008      C3013   1.507       .  S
C3009      C3010   1.395       .  A
C3009      H3014   1.085       .  S
C3010      C3011   1.403       .  A
C3011      C3012   1.401       .  A
C3011      C3015   1.507       .  S
C3012      H3016   1.075       .  S
C3013      H3023   1.109       .  S
C3013      H3024   1.108       .  S
C3013      H3025   1.101       .  S
C3015      H3026   1.107       .  S
C3015      H3027   1.110       .  S
C3015      H3028   1.102       .  S
C3029      C3030   1.408       .  A
C3029      C3034   1.398       .  A
C3029      H3039   1.066       .  S
C3030      C3035   1.492       .  S
C3030      C3031   1.416       .  A
C3031      C3032   1.394       .  A
C3031      C3036   1.497       .  S
C3032      C3033   1.390       .  A
C3032      H3037   1.085       .  S
C3033      C3034   1.403       .  A
C3034      C3038   1.508       .  S
C3035      C3040   1.416       .  A
C3035      C3044   1.401       .  A
C3036      H3052   1.104       .  S
C3036      H3053   1.095       .  S
C3038      H3049   1.111       .  S
C3038      H3050   1.110       .  S
C3038      H3051   1.108       .  S
C3040      C3041   1.401       .  A
C3040      C3045   1.503       .  S
C3041      C3042   1.406       .  A
C3041      H3046   1.084       .  S
C3042      C3043   1.423       .  A
C3043      C3044   1.404       .  A
C3043      C3047   1.508       .  S
C3044      H3048   1.084       .  S
C3045      H3055   1.107       .  S
C3045      H3056   1.105       .  S
C3045      H3057   1.102       .  S
C3047      H3058   1.110   1_545  S
C3047      H3059   1.110       .  S
C3047      H3060   1.111       .  S
C3061      C3062   1.396       .  A
C3061      C3066   1.406       .  A
C3061      H3071   1.062       .  S
C3062      C3067   1.511       .  S
C3062      C3063   1.409       .  A
C3063      C3064   1.415       .  A
C3063      C3068   1.489       .  S
C3064      C3065   1.404       .  A
C3064      H3069   1.084       .  S
C3065      C3066   1.407       .  A
C3066      C3070   1.506       .  S
C3067      C3072   1.421       .  A
C3067      C3076   1.405       .  A
C3068      H3084   1.106       .  S
C3068      H3085   1.107       .  S
C3068      H3086   1.103       .  S
C3070      H3081   1.103       .  S
C3070      H3082   1.107       .  S
C3070      H3083   1.108       .  S
C3072      C3073   1.402       .  A
C3072      C3077   1.499       .  S
C3073      C3074   1.403       .  A
C3073      H3078   1.085       .  S
C3074      C3075   1.415       .  A
C3075      C3076   1.407       .  A
C3075      C3079   1.508       .  S
C3076      H3080   1.069       .  S
C3077      H3087   1.106       .  S
C3077      H3088   1.110       .  S
C3077      H3089   1.100       .  S
C3079      H3090   1.106       .  S
C3079      H3091   1.110       .  S
C3079      H3092   1.107       .  S
C3093      C3094   1.403       .  A
C3093      C3098   1.399       .  A
C3093      H3103   1.066       .  S
C3094      C3099   1.510       .  S
C3094      C3095   1.418       .  A
C3095      C3096   1.408       .  A
C3095      C3100   1.494       .  S
C3096      C3097   1.402       .  A
C3096      H3101   1.085       .  S
C3097      C3098   1.406       .  A
C3098      C3102   1.506       .  S
C3099      C3104   1.415       .  A
C3099      C3108   1.414       .  A
C3100      H3116   1.104       .  S
C3100      H3117   1.103       .  S
C3100      H3118   1.104       .  S
C3102      H3113   1.109       .  S
C3104      C3105   1.402       .  A
C3104      C3109   1.504       .  S
C3105      C3106   1.403       .  A
C3105      H3110   1.084       .  S
C3106      C3107   1.405       .  A
C3107      C3108   1.413       .  A
C3107      C3111   1.505       .  S
C3108      H3112   1.071       .  S
C3109      H3119   1.109   1_545  S
C3109      H3120   1.099       .  S
C3109      H3121   1.104       .  S
C3111      H3122   1.108       .  S
C3111      H3123   1.110       .  S
C3111      H3124   1.109       .  S
C3125      C3126   1.399       .  A
C3125      C3130   1.393       .  A
C3125      H3135   1.077       .  S
C3126      C3131   1.504       .  S
C3126      C3127   1.434       .  A
C3127      C3128   1.413       .  A
C3127      C3132   1.516       .  S
C3128      C3129   1.406       .  A
C3128      H3133   1.084       .  S
C3129      C3130   1.406       .  A
C3130      C3134   1.506       .  S
C3131      C3136   1.435       .  A
C3131      C3140   1.408       .  A
C3132      H3148   1.098       .  S
C3132      H3149   1.107       .  S
C3132      H3150   1.111       .  S
C3134      H3145   1.106       .  S
C3134      H3146   1.103       .  S
C3134      H3147   1.110       .  S
C3136      C3137   1.394       .  A
C3136      C3141   1.516       .  S
C3137      C3138   1.392       .  A
C3137      H3142   1.083       .  S
C3138      C3139   1.408       .  A
C3139      C3140   1.402       .  A
C3139      C3143   1.506       .  S
C3140      H3144   1.079       .  S
C3141      H3151   1.108       .  S
C3141      H3152   1.106       .  S
C3141      H3153   1.103       .  S
C3143      H3154   1.109       .  S
C3143      H3155   1.110       .  S
C3143      H3156   1.108       .  S
O3157     Ni3163   1.970   1_556  S
O3157      C3178   1.293       .  A
O3158     Ni3181   1.995       .  S
O3158      C3167   1.328       .  A
O3159     Ni3163   1.817       .  S
O3159     Ni3181   1.880       .  S
O3159     Ni3175   1.867   1_554  S
O3159      H3182   0.959   1_554  S
C3160      O3177   1.318       .  A
C3160      O3169   1.299       .  A
C3160      C3284   1.555       .  S
O3161     Ni3180   1.935   1_554  S
O3161      C3167   1.286       .  A
O3162     Ni3180   1.968       .  S
O3162      C3164   1.284       .  A
Ni3163     O3166   2.016       .  S
Ni3163     O3168   1.950       .  S
C3164      O3174   1.283       .  A
C3164      C3292   1.526       .  S
O3165     Ni3181   1.989       .  S
O3165      C3171   1.305       .  A
O3166      C3171   1.313       .  A
C3167      C3402   1.510       .  S
O3168      C3170   1.272       .  A
O3169     Ni3180   1.998       .  S
C3170      O3176   1.314       .  A
C3170      C3417   1.556       .  S
C3171      C3434   1.534       .  S
H3172      O3173   0.965   1_554  S
O3173     Ni3181   1.865   1_556  S
O3173     Ni3175   1.836       .  S
O3173     Ni3180   1.840       .  S
O3174     Ni3175   1.981       .  S
Ni3175     O3179   1.949       .  S
Ni3175     O3177   1.977       .  S
O3176     Ni3181   2.005       .  S
C3178      O3179   1.302       .  A
C3178      C3268   1.513       .  S
O3183     Ni3189   1.894       .  S
O3183      C3204   1.276       .  A
O3184     Ni3207   1.971       .  S
O3184      C3193   1.302       .  A
O3185     Ni3189   1.916       .  S
O3185     Ni3207   1.890       .  S
O3185     Ni3201   1.849       .  S
O3185      H3208   0.970       .  S
C3186      O3203   1.301       .  A
C3186      O3195   1.293       .  A
C3186      C3425   1.516       .  S
O3187     Ni3206   1.954       .  S
O3187      C3193   1.286       .  A
O3188     Ni3206   1.924       .  S
O3188      C3190   1.267       .  A
Ni3189     O3192   1.953       .  S
Ni3189     O3194   1.943       .  S
C3190      O3200   1.301       .  A
C3190      C3409   1.532       .  S
O3191     Ni3207   1.997       .  S
O3191      C3197   1.319       .  A
O3192      C3197   1.291       .  A
C3193      C3275   1.517       .  S
O3194      C3196   1.262       .  A
O3195     Ni3206   1.977       .  S
C3196      O3202   1.264       .  A
C3196      C3252   1.507       .  S
C3197      C3260   1.535       .  S
H3198      O3199   0.963       .  S
O3199     Ni3207   1.926       .  S
O3199     Ni3201   1.901       .  S
O3199     Ni3206   1.882       .  S
O3200     Ni3201   2.001       .  S
Ni3201     O3205   2.026       .  S
Ni3201     O3203   1.963       .  S
O3202     Ni3207   1.935       .  S
C3204      O3205   1.325       .  A
C3204      C3379   1.532       .  S
O3209      C3219   1.275       .  A
O3210     Ni3217   1.895       .  S
O3210      C3220   1.279       .  A
O3211     Ni3217   1.912       .  S
O3211      C3221   1.279       .  A
O3212      C3222   1.281       .  A
O3213      C3222   1.282       .  A
O3214     Ni3218   1.919       .  S
O3214      C3221   1.283       .  A
O3215     Ni3218   1.923       .  S
O3215      C3220   1.281       .  A
O3216      C3219   1.284       .  A
Ni3217    Ni3218   2.382       .  S
C3219      C4094   1.489       .  S
C3220      C4181   1.480       .  S
C3221      C4126   1.493       .  S
C3222      C4158   1.479       .  S
O3223     Ni3231   1.924       .  S
O3223      C3233   1.282       .  A
O3224     Ni3231   1.929       .  S
O3224      C3234   1.285       .  A
O3225     Ni3231   1.901       .  S
O3225      C3235   1.279       .  A
O3226     Ni3231   1.901       .  S
O3226      C3236   1.276       .  A
O3227     Ni3232   1.897       .  S
O3227      C3236   1.277       .  A
O3228     Ni3232   1.898       .  S
O3228      C3235   1.278       .  A
O3229     Ni3232   1.916       .  S
O3229      C3234   1.280       .  A
O3230     Ni3232   1.909       .  S
O3230      C3233   1.280       .  A
Ni3231    Ni3232   2.392       .  S
C3233      C4030   1.470       .  S
C3234      C3957   1.489       .  S
C3235      C4062   1.466       .  S
C3236      C3998   1.446       .  S
O3237      C3247   1.284       .  A
O3238     Ni3245   1.918       .  S
O3238      C3248   1.285       .  A
O3239     Ni3245   1.914       .  S
O3239      C3249   1.280       .  A
O3240      C3250   1.279       .  A
O3241      C3250   1.283       .  A
O3242     Ni3246   1.921       .  S
O3242      C3249   1.282       .  A
O3243     Ni3246   1.927       .  S
O3243      C3248   1.281       .  A
O3244      C3247   1.281       .  A
Ni3245    Ni3246   2.384       .  S
C3247      C3861   1.497       .  S
C3248      C3925   1.492       .  S
C3249      C3829   1.478       .  S
C3250      C3893   1.481       .  S
C3251      C3313   1.513       .  S
C3251      C3256   1.413       .  A
C3252      C3253   1.410       .  A
C3253      C3254   1.383       .  A
C3253      H3258   1.088       .  S
C3254      C4149   1.486       .  S
C3255      C4053   1.479       .  S
C3255      C3256   1.384       .  A
C3256      H3257   1.087       .  S
C3259      C3309   1.531       .  S
C3259      C3264   1.413       .  A
C3260      C3261   1.430       .  A
C3261      C3262   1.403       .  A
C3261      H3266   1.083       .  S
C3262      C4021   1.507       .  S
C3263      C3902   1.475       .  S
C3263      C3264   1.388       .  A
C3264      H3265   1.084       .  S
C3267      C3335   1.522       .  S
C3267      C3268   1.457       .  A
C3267      C3272   1.427       .  A
C3268      C3269   1.416       .  A
C3269      C3270   1.393       .  A
C3269      H3274   1.085       .  S
C3270      C3838   1.496       .  S
C3270      C3271   1.409       .  A
C3271      C4117   1.497       .  S
C3271      C3272   1.411       .  A
C3272      H3273   1.084       .  S
C3275      C3276   1.464       .  A
C3275      C3280   1.410       .  A
C3276      C3312   1.527       .  S
C3276      C3277   1.410       .  A
C3277      C3278   1.400       .  A
C3277      H3282   1.084       .  S
C3278      C4190   1.491       .  S
C3278      C3279   1.416       .  A
C3279      C3934   1.494       .  S
C3279      C3280   1.397       .  A
C3280      H3281   1.086       .  S
C3283      C3338   1.528       .  S
C3283      C3288   1.428       .  A
C3284      C3285   1.410       .  A
C3285      C3286   1.384       .  A
C3285      H3290   1.083       .  S
C3286      C3989   1.459       .  S
C3287      C3870   1.510       .  S
C3287      C3288   1.396       .  A
C3288      H3289   1.086       .  S
C3291      C3339   1.536       .  S
C3291      C3296   1.417       .  A
C3292      C3293   1.409       .  A
C3293      C3294   1.376       .  A
C3293      H3298   1.089       .  S
C3294      C4085   1.468       .  S
C3295      C3966   1.478       .  S
C3295      C3296   1.385       .  A
C3296      H3297   1.085       .  S
O3299     Ni3305   1.955       .  S
O3299      C3320   1.286       .  A
O3300     Ni3323   2.016       .  S
O3300      C3309   1.321       .  A
O3301     Ni3305   1.890       .  S
O3301     Ni3323   1.904       .  S
O3301     Ni3317   1.930       .  S
O3301      H3324   0.965       .  S
C3302      O3319   1.320       .  A
C3302      O3311   1.289       .  A
C3302      C3380   1.531       .  S
O3303     Ni3322   1.898       .  S
O3303      C3309   1.275       .  A
O3304     Ni3322   1.944       .  S
O3304      C3306   1.263       .  A
Ni3305     O3308   1.978       .  S
Ni3305     O3310   1.922       .  S
C3306      O3316   1.270       .  A
C3306      C3426   1.523       .  S
O3307     Ni3323   1.948       .  S
O3307      C3313   1.299       .  A
O3308      C3313   1.291       .  A
O3310      C3312   1.268       .  A
O3311     Ni3322   1.947       .  S
C3312      O3318   1.297       .  A
H3314      O3315   0.966       .  S
O3315     Ni3323   1.850       .  S
O3315     Ni3317   1.894       .  S
O3315     Ni3322   1.920       .  S
O3316     Ni3317   1.961       .  S
Ni3317     O3321   1.989       .  S
Ni3317     O3319   1.996       .  S
O3318     Ni3323   1.998       .  S
C3320      O3321   1.306       .  A
C3320      C3410   1.528       .  S
O3325     Ni3331   1.955   1_554  S
O3325      C3346   1.290       .  A
O3326     Ni3349   1.979       .  S
O3326      C3335   1.310       .  A
O3327     Ni3331   1.843       .  S
O3327     Ni3349   1.854       .  S
O3327     Ni3343   1.865   1_556  S
O3327      H3350   0.966       .  S
C3328      O3345   1.301       .  A
C3328      O3337   1.308       .  A
C3328      C3401   1.514       .  S
O3329     Ni3348   1.960   1_556  S
O3329      C3335   1.292       .  A
O3330     Ni3348   1.951       .  S
O3330      C3332   1.275       .  A
Ni3331     O3334   1.985       .  S
Ni3331     O3336   1.981       .  S
C3332      O3342   1.314       .  A
C3332      C3418   1.554       .  S
O3333     Ni3349   1.982       .  S
O3333      C3339   1.324       .  A
O3334      C3339   1.298       .  A
O3336      C3338   1.284       .  A
O3337     Ni3348   2.003       .  S
C3338      O3344   1.277       .  A
H3340      O3341   0.960   1_556  S
O3341     Ni3349   1.867   1_554  S
O3341     Ni3343   1.882       .  S
O3341     Ni3348   1.816       .  S
O3342     Ni3343   2.001       .  S
Ni3343     O3347   2.010       .  S
Ni3343     O3345   1.976       .  S
O3344     Ni3349   1.964       .  S
C3346      O3347   1.329       .  A
C3346      C3433   1.534       .  S
O3351      C3361   1.279       .  A
O3352     Ni3359   1.901       .  S
O3352      C3362   1.276       .  A
O3353     Ni3359   1.953       .  S
O3353      C3363   1.289       .  A
O3354      C3364   1.287       .  A
O3355      C3364   1.272       .  A
O3356     Ni3360   1.906       .  S
O3356      C3363   1.276       .  A
O3357     Ni3360   1.934       .  S
O3357      C3362   1.288       .  A
O3358      C3361   1.284       .  A
Ni3359    Ni3360   2.379       .  S
C3361      C3742   1.481       .  S
C3362      C3765   1.503       .  S
C3363      C3797   1.493       .  S
C3364      C3701   1.486       .  S
O3365     Ni3373   1.901       .  S
O3365      C3375   1.277       .  A
O3366     Ni3373   1.879       .  S
O3366      C3376   1.275       .  A
O3367     Ni3373   1.897       .  S
O3367      C3377   1.279       .  A
O3368     Ni3373   1.909       .  S
O3368      C3378   1.277       .  A
O3369     Ni3374   1.909       .  S
O3369      C3378   1.282       .  A
O3370     Ni3374   1.920       .  S
O3370      C3377   1.282       .  A
O3371     Ni3374   1.893       .  S
O3371      C3376   1.277       .  A
O3372     Ni3374   1.896       .  S
O3372      C3375   1.278       .  A
Ni3373    Ni3374   2.389       .  S
C3375      C3573   1.485       .  S
C3376      C3678   1.465       .  S
C3377      C3646   1.478       .  S
C3378      C3614   1.472       .  S
C3379      C3384   1.414       .  A
C3380      C3381   1.422       .  A
C3381      C3382   1.401       .  A
C3381      H3386   1.082       .  S
C3382      C3637   1.502       .  S
C3383      C3710   1.489       .  S
C3383      C3384   1.397       .  A
C3384      H3385   1.084       .  S
O3387      C3397   1.280       .  A
O3388     Ni3395   1.908       .  S
O3388      C3398   1.283       .  A
O3389     Ni3395   1.910       .  S
O3389      C3399   1.277       .  A
O3390      C3400   1.278       .  A
O3391      C3400   1.285       .  A
O3392     Ni3396   1.925       .  S
O3392      C3399   1.283       .  A
O3393     Ni3396   1.904       .  S
O3393      C3398   1.276       .  A
O3394      C3397   1.281       .  A
Ni3395    Ni3396   2.384       .  S
C3397      C3486   1.479       .  S
C3398      C3509   1.481       .  S
C3399      C3541   1.494       .  S
C3400      C3445   1.480       .  S
C3401      C3406   1.403       .  A
C3402      C3403   1.413       .  A
C3403      C3404   1.382       .  A
C3403      H3408   1.084       .  S
C3404      C3733   1.489       .  S
C3405      C3669   1.462       .  S
C3405      C3406   1.383       .  A
C3406      H3407   1.087       .  S
C3409      C3410   1.477       .  A
C3409      C3414   1.408       .  A
C3410      C3411   1.415       .  A
C3411      C3412   1.398       .  A
C3411      H3416   1.086       .  S
C3412      C3774   1.491       .  S
C3412      C3413   1.404       .  A
C3413      C3518   1.475       .  S
C3413      C3414   1.391       .  A
C3414      H3415   1.085       .  S
C3417      C3418   1.498       .  A
C3417      C3422   1.420       .  A
C3418      C3419   1.428       .  A
C3419      C3420   1.399       .  A
C3419      H3424   1.082       .  S
C3420      C3806   1.504       .  S
C3420      C3421   1.404       .  A
C3421      C3550   1.488       .  S
C3421      C3422   1.398       .  A
C3422      H3423   1.084       .  S
C3425      C3430   1.412       .  A
C3426      C3427   1.411       .  A
C3427      C3428   1.388       .  A
C3427      H3432   1.087       .  S
C3428      C3454   1.497       .  S
C3429      C3582   1.490       .  S
C3429      C3430   1.392       .  A
C3430      H3431   1.087       .  S
C3433      C3438   1.419       .  A
C3434      C3435   1.412       .  A
C3435      C3436   1.394       .  A
C3435      H3440   1.086       .  S
C3436      C3605   1.481       .  S
C3437      C3477   1.492       .  S
C3437      C3438   1.393       .  A
C3438      H3439   1.084       .  S
C3441      C3442   1.406       .  A
C3441      C3446   1.411       .  A
C3441      H3451   1.081       .  S
C3442      C3447   1.484       .  S
C3442      C3443   1.404       .  A
C3443      C3444   1.399       .  A
C3443      C3448   1.509       .  S
C3444      C3445   1.403       .  A
C3444      H3449   1.078       .  S
C3445      C3446   1.415       .  A
C3446      C3450   1.507       .  S
C3447      C3452   1.406       .  A
C3447      C3456   1.397       .  A
C3448      H3464   1.106       .  S
C3448      H3465   1.105       .  S
C3448      H3466   1.101   1_565  S
C3450      H3461   1.109       .  S
C3450      H3462   1.111       .  S
C3450      H3463   1.110       .  S
C3452      C3453   1.400       .  A
C3452      C3457   1.495       .  S
C3453      C3454   1.402       .  A
C3454      C3455   1.421       .  A
C3455      C3456   1.408       .  A
C3455      C3459   1.504       .  S
C3456      H3460   1.084       .  S
C3457      H3468   1.099       .  S
C3457      H3469   1.103       .  S
C3459      H3470   1.104       .  S
C3459      H3471   1.110       .  S
C3459      H3472   1.108       .  S
C3473      C3474   1.409       .  A
C3473      C3478   1.401       .  A
C3473      H3483   1.084       .  S
C3474      C3479   1.508       .  S
C3474      C3475   1.418       .  A
C3475      C3476   1.410       .  A
C3475      C3480   1.502       .  S
C3476      C3477   1.402       .  A
C3476      H3481   1.084       .  S
C3477      C3478   1.414       .  A
C3478      C3482   1.508       .  S
C3479      C3484   1.423       .  A
C3479      C3488   1.405       .  A
C3480      H3496   1.106       .  S
C3480      H3497   1.089       .  S
C3480      H3498   1.109       .  S
C3482      H3493   1.110       .  S
C3482      H3494   1.110       .  S
C3482      H3495   1.107       .  S
C3484      C3485   1.404       .  A
C3484      C3489   1.492       .  S
C3485      C3486   1.397       .  A
C3485      H3490   1.085       .  S
C3486      C3487   1.412       .  A
C3487      C3488   1.399       .  A
C3487      C3491   1.504       .  S
C3488      H3492   1.079       .  S
C3489      H3499   1.110       .  S
C3489      H3500   1.101       .  S
C3489      H3501   1.102       .  S
C3491      H3502   1.107   1_565  S
C3491      H3503   1.107       .  S
C3491      H3504   1.106       .  S
C3505      C3506   1.397       .  A
C3505      C3510   1.407       .  A
C3505      H3515   1.080       .  S
C3506      C3511   1.492       .  S
C3506      C3507   1.409       .  A
C3507      C3508   1.391       .  A
C3507      C3512   1.476       .  S
C3508      C3509   1.393       .  A
C3508      H3513   1.085       .  S
C3509      C3510   1.419       .  A
C3510      C3514   1.500       .  S
C3511      C3516   1.419       .  A
C3511      C3520   1.397       .  A
C3512      H3528   1.102       .  S
C3512      H3529   1.109       .  S
C3512      H3530   1.107       .  S
C3514      H3525   1.102       .  S
C3514      H3526   1.110       .  S
C3514      H3527   1.105       .  S
C3516      C3517   1.403       .  A
C3516      C3521   1.497       .  S
C3517      C3518   1.398       .  A
C3517      H3522   1.085       .  S
C3518      C3519   1.410       .  A
C3519      C3520   1.395       .  A
C3519      C3523   1.506       .  S
C3520      H3524   1.077       .  S
C3521      H3531   1.109       .  S
C3521      H3532   1.110       .  S
C3521      H3533   1.101       .  S
C3523      H3534   1.110       .  S
C3523      H3535   1.107       .  S
C3523      H3536   1.108       .  S
C3537      C3538   1.402       .  A
C3537      C3542   1.401       .  A
C3537      H3547   1.080       .  S
C3538      C3543   1.501       .  S
C3538      C3539   1.413       .  A
C3539      C3540   1.408       .  A
C3539      C3544   1.503       .  S
C3540      C3541   1.408       .  A
C3540      H3545   1.080       .  S
C3541      C3542   1.420       .  A
C3542      C3546   1.511       .  S
C3543      C3548   1.419       .  A
C3543      C3552   1.407       .  A
C3544      H3560   1.108       .  S
C3544      H3561   1.108       .  S
C3544      H3562   1.107       .  S
C3546      H3557   1.106       .  S
C3546      H3558   1.107       .  S
C3546      H3559   1.110       .  S
C3548      C3549   1.405       .  A
C3548      C3553   1.512       .  S
C3549      C3550   1.399       .  A
C3549      H3554   1.083       .  S
C3550      C3551   1.406       .  A
C3551      C3552   1.405       .  A
C3551      C3555   1.507       .  S
C3552      H3556   1.074       .  S
C3553      H3563   1.107       .  S
C3553      H3564   1.104       .  S
C3553      H3565   1.109       .  S
C3555      H3566   1.107       .  S
C3555      H3567   1.108       .  S
C3555      H3568   1.104       .  S
C3569      C3570   1.396       .  A
C3569      C3574   1.405       .  A
C3569      H3579   1.081       .  S
C3570      C3575   1.482       .  S
C3570      C3571   1.405       .  A
C3571      C3572   1.393       .  A
C3571      C3576   1.501       .  S
C3572      C3573   1.413       .  A
C3572      H3577   1.084       .  S
C3573      C3574   1.422       .  A
C3574      C3578   1.510   1_655  S
C3575      C3580   1.413       .  A
C3575      C3584   1.403       .  A
C3576      H3592   1.105       .  S
C3576      H3593   1.110       .  S
C3576      H3594   1.110       .  S
C3578      H3589   1.111       .  S
C3578      H3590   1.111       .  S
C3578      H3591   1.108   1_455  S
C3580      C3581   1.396       .  A
C3580      C3585   1.510       .  S
C3581      C3582   1.397       .  A
C3582      C3583   1.417       .  A
C3583      C3584   1.409       .  A
C3583      C3587   1.505       .  S
C3584      H3588   1.081       .  S
C3585      H3596   1.104       .  S
C3585      H3597   1.105       .  S
C3587      H3598   1.110       .  S
C3587      H3599   1.110       .  S
C3587      H3600   1.109       .  S
C3601      C3602   1.413       .  A
C3601      C3606   1.407       .  A
C3601      H3611   1.083       .  S
C3602      C3607   1.499       .  S
C3602      C3603   1.423   1_655  A
C3603      C3604   1.400       .  A
C3603      C3608   1.509       .  S
C3604      C3605   1.397   1_455  A
C3604      H3609   1.083       .  S
C3605      C3606   1.404       .  A
C3607      C3612   1.418       .  A
C3607      C3616   1.399       .  A
C3608      H3624   1.098       .  S
C3608      H3625   1.111       .  S
C3608      H3626   1.110       .  S
C3610      H3621   1.109       .  S
C3610      H3622   1.110       .  S
C3610      H3623   1.110       .  S
C3612      C3613   1.393       .  A
C3612      C3617   1.482       .  S
C3613      C3614   1.387       .  A
C3613      H3618   1.086       .  S
C3614      C3615   1.423       .  A
C3615      C3616   1.404       .  A
C3615      C3619   1.500       .  S
C3616      H3620   1.085       .  S
C3617      H3627   1.110   1_655  S
C3617      H3628   1.104   1_655  S
C3617      H3629   1.106       .  S
C3619      H3630   1.111   1_665  S
C3619      H3631   1.100       .  S
C3619      H3632   1.104       .  S
C3633      C3634   1.401       .  A
C3633      C3638   1.410       .  A
C3633      H3643   1.081       .  S
C3634      C3639   1.484       .  S
C3634      C3635   1.402       .  A
C3635      C3636   1.402       .  A
C3635      C3640   1.503       .  S
C3636      C3637   1.406       .  A
C3636      H3641   1.082       .  S
C3637      C3638   1.421       .  A
C3638      C3642   1.507       .  S
C3639      C3644   1.406       .  A
C3639      C3648   1.402       .  A
C3640      H3656   1.107       .  S
C3640      H3657   1.102       .  S
C3640      H3658   1.103   1_565  S
C3642      H3653   1.111       .  S
C3642      H3654   1.106       .  S
C3642      H3655   1.108       .  S
C3644      C3645   1.393       .  A
C3644      C3649   1.501       .  S
C3645      C3646   1.405       .  A
C3645      H3650   1.083       .  S
C3646      C3647   1.412       .  A
C3647      C3648   1.406       .  A
C3647      C3651   1.505       .  S
C3648      H3652   1.075       .  S
C3649      H3659   1.109   1_565  S
C3649      H3660   1.108       .  S
C3649      H3661   1.102   1_565  S
C3651      H3662   1.108       .  S
C3651      H3663   1.109       .  S
C3651      H3664   1.110       .  S
C3665      C3666   1.403       .  A
C3665      C3670   1.398       .  A
C3665      H3675   1.084       .  S
C3666      C3671   1.464       .  S
C3666      C3667   1.408       .  A
C3667      C3668   1.385       .  A
C3667      C3672   1.498       .  S
C3668      C3669   1.393       .  A
C3668      H3673   1.084       .  S
C3669      C3670   1.413       .  A
C3670      C3674   1.507       .  S
C3671      C3676   1.401       .  A
C3671      C3680   1.393       .  A
C3672      H3688   1.105       .  S
C3672      H3689   1.101       .  S
C3672      H3690   1.089       .  S
C3674      H3685   1.111       .  S
C3674      H3686   1.111       .  S
C3674      H3687   1.106       .  S
C3676      C3677   1.393       .  A
C3676      C3681   1.492       .  S
C3677      C3678   1.400       .  A
C3677      H3682   1.084       .  S
C3678      C3679   1.412       .  A
C3679      C3680   1.394       .  A
C3679      C3683   1.494   1_565  S
C3680      H3684   1.081   1_565  S
C3681      H3691   1.107       .  S
C3681      H3692   1.101       .  S
C3681      H3693   1.101       .  S
C3683      H3694   1.094       .  S
C3683      H3695   1.105       .  S
C3683      H3696   1.107   1_545  S
C3697      C3698   1.395       .  A
C3697      C3702   1.400       .  A
C3697      H3707   1.075       .  S
C3698      C3703   1.489       .  S
C3698      C3699   1.408       .  A
C3699      C3700   1.412       .  A
C3699      C3704   1.502   1_655  S
C3700      C3701   1.411       .  A
C3700      H3705   1.083       .  S
C3701      C3702   1.419       .  A
C3702      C3706   1.512       .  S
C3703      C3708   1.407       .  A
C3703      C3712   1.401       .  A
C3704      H3720   1.098       .  S
C3704      H3721   1.104   1_455  S
C3704      H3722   1.108       .  S
C3706      H3717   1.105       .  S
C3706      H3718   1.109       .  S
C3706      H3719   1.110       .  S
C3708      C3709   1.400       .  A
C3708      C3713   1.490       .  S
C3709      C3710   1.400       .  A
C3709      H3714   1.085       .  S
C3710      C3711   1.415       .  A
C3711      C3712   1.403       .  A
C3712      H3716   1.076       .  S
C3713      H3723   1.100       .  S
C3713      H3724   1.106       .  S
C3713      H3725   1.091       .  S
C3715      H3726   1.110   1_545  S
C3715      H3727   1.108       .  S
C3715      H3728   1.111       .  S
C3729      C3730   1.403       .  A
C3729      C3734   1.409       .  A
C3729      H3739   1.082       .  S
C3730      C3735   1.493       .  S
C3730      C3731   1.422       .  A
C3731      C3732   1.395       .  A
C3731      C3736   1.506       .  S
C3732      C3733   1.396       .  A
C3732      H3737   1.084       .  S
C3733      C3734   1.412       .  A
C3734      C3738   1.501       .  S
C3735      C3740   1.403       .  A
C3735      C3744   1.409       .  A
C3736      H3752   1.100       .  S
C3736      H3753   1.110       .  S
C3736      H3754   1.109       .  S
C3738      H3749   1.101       .  S
C3738      H3750   1.108       .  S
C3738      H3751   1.105       .  S
C3740      C3741   1.400       .  A
C3740      C3745   1.495       .  S
C3741      C3742   1.400       .  A
C3741      H3746   1.084       .  S
C3742      C3743   1.413       .  A
C3743      C3744   1.416       .  A
C3743      C3747   1.504       .  S
C3744      H3748   1.083       .  S
C3745      H3755   1.102       .  S
C3745      H3756   1.080       .  S
C3745      H3757   1.098       .  S
C3747      H3758   1.110       .  S
C3747      H3759   1.107       .  S
C3747      H3760   1.103       .  S
C3761      C3762   1.403       .  A
C3761      C3766   1.410       .  A
C3761      H3771   1.083       .  S
C3762      C3767   1.508       .  S
C3762      C3763   1.418       .  A
C3763      C3764   1.409       .  A
C3763      C3768   1.508       .  S
C3764      C3765   1.409       .  A
C3764      H3769   1.084       .  S
C3765      C3766   1.426       .  A
C3766      C3770   1.507       .  S
C3767      C3772   1.423       .  A
C3767      C3776   1.407       .  A
C3768      H3784   1.098       .  S
C3768      H3785   1.105       .  S
C3768      H3786   1.110       .  S
C3770      H3781   1.111       .  S
C3770      H3782   1.104       .  S
C3770      H3783   1.107       .  S
C3772      C3773   1.401       .  A
C3772      C3777   1.501       .  S
C3773      C3774   1.395       .  A
C3773      H3778   1.082       .  S
C3774      C3775   1.414       .  A
C3775      C3776   1.407       .  A
C3775      C3779   1.507       .  S
C3776      H3780   1.075       .  S
C3777      H3787   1.103       .  S
C3777      H3788   1.101       .  S
C3777      H3789   1.104       .  S
C3779      H3790   1.110       .  S
C3779      H3791   1.107       .  S
C3779      H3792   1.111       .  S
C3793      C3794   1.401       .  A
C3793      C3798   1.403       .  A
C3793      H3803   1.079       .  S
C3794      C3799   1.518       .  S
C3794      C3795   1.427       .  A
C3795      C3796   1.412       .  A
C3795      C3800   1.496       .  S
C3796      C3797   1.396       .  A
C3796      H3801   1.084       .  S
C3797      C3798   1.417       .  A
C3798      C3802   1.497       .  S
C3799      C3804   1.425       .  A
C3799      C3808   1.409       .  A
C3800      H3816   1.104       .  S
C3800      H3817   1.110       .  S
C3800      H3818   1.105       .  S
C3802      H3813   1.107       .  S
C3802      H3814   1.100       .  S
C3802      H3815   1.107       .  S
C3804      C3805   1.412       .  A
C3804      C3809   1.508       .  S
C3805      C3806   1.404       .  A
C3805      H3810   1.084       .  S
C3806      C3807   1.407       .  A
C3807      C3808   1.406       .  A
C3807      C3811   1.503       .  S
C3808      H3812   1.075       .  S
C3809      H3819   1.109       .  S
C3809      H3820   1.110       .  S
C3809      H3821   1.108       .  S
C3811      H3822   1.106       .  S
C3811      H3823   1.109       .  S
C3811      H3824   1.107       .  S
C3825      C3826   1.393       .  A
C3825      C3830   1.397       .  A
C3825      H3835   1.076       .  S
C3826      C3831   1.511       .  S
C3826      C3827   1.430       .  A
C3827      C3828   1.409       .  A
C3827      C3832   1.496       .  S
C3828      C3829   1.397       .  A
C3828      H3833   1.085       .  S
C3829      C3830   1.412       .  A
C3830      C3834   1.497       .  S
C3831      C3836   1.410       .  A
C3831      C3840   1.411       .  A
C3832      H3848   1.092       .  S
C3832      H3849   1.110       .  S
C3832      H3850   1.105       .  S
C3834      H3845   1.104       .  S
C3834      H3846   1.101       .  S
C3834      H3847   1.096       .  S
C3836      C3837   1.407       .  A
C3836      C3841   1.486       .  S
C3837      C3838   1.399       .  A
C3837      H3842   1.085       .  S
C3838      C3839   1.411       .  A
C3839      C3840   1.409       .  A
C3839      C3843   1.507       .  S
C3840      H3844   1.078       .  S
C3841      H3851   1.107       .  S
C3841      H3852   1.103       .  S
C3841      H3853   1.105       .  S
C3843      H3854   1.108       .  S
C3843      H3855   1.109       .  S
C3843      H3856   1.110       .  S
C3857      C3858   1.413       .  A
C3857      C3862   1.412       .  A
C3857      H3867   1.083       .  S
C3858      C3863   1.527       .  S
C3858      C3859   1.426       .  A
C3859      C3860   1.401       .  A
C3859      C3864   1.496       .  S
C3860      C3861   1.402       .  A
C3860      H3865   1.085       .  S
C3861      C3862   1.419       .  A
C3862      C3866   1.506       .  S
C3863      C3868   1.430       .  A
C3863      C3872   1.410       .  A
C3864      H3880   1.093       .  S
C3864      H3881   1.110       .  S
C3864      H3882   1.109       .  S
C3866      H3877   1.109       .  S
C3866      H3878   1.108       .  S
C3866      H3879   1.110       .  S
C3868      C3869   1.413       .  A
C3868      C3873   1.504       .  S
C3869      C3870   1.403       .  A
C3869      H3874   1.084       .  S
C3870      C3871   1.414       .  A
C3871      C3872   1.409       .  A
C3872      H3876   1.084       .  S
C3873      H3883   1.109       .  S
C3873      H3884   1.103       .  S
C3873      H3885   1.107       .  S
C3875      H3886   1.109       .  S
C3875      H3887   1.109       .  S
C3875      H3888   1.110       .  S
C3889      C3890   1.414       .  A
C3889      C3894   1.407       .  A
C3889      H3899   1.083       .  S
C3890      C3895   1.523       .  S
C3890      C3891   1.429       .  A
C3891      C3892   1.402       .  A
C3891      C3896   1.503       .  S
C3892      C3893   1.393       .  A
C3892      H3897   1.085       .  S
C3893      C3894   1.413       .  A
C3894      C3898   1.508       .  S
C3895      C3900   1.434       .  A
C3895      C3904   1.415       .  A
C3896      H3912   1.109       .  S
C3896      H3913   1.105       .  S
C3896      H3914   1.103       .  S
C3898      H3909   1.111       .  S
C3898      H3910   1.110       .  S
C3898      H3911   1.110       .  S
C3900      C3901   1.402       .  A
C3900      C3905   1.503       .  S
C3901      C3902   1.390       .  A
C3901      H3906   1.084       .  S
C3902      C3903   1.393       .  A
C3903      C3904   1.399       .  A
C3904      H3908   1.065       .  S
C3905      H3915   1.111       .  S
C3905      H3916   1.110       .  S
C3905      H3917   1.105       .  S
C3907      H3918   1.108       .  S
C3907      H3919   1.110       .  S
C3907      H3920   1.099       .  S
C3921      C3922   1.413       .  A
C3921      C3926   1.424       .  A
C3921      H3931   1.070       .  S
C3922      C3927   1.526       .  S
C3922      C3923   1.411       .  A
C3923      C3924   1.393       .  A
C3923      C3928   1.477       .  S
C3924      C3925   1.388       .  A
C3924      H3929   1.081       .  S
C3925      C3926   1.414       .  A
C3926      C3930   1.504       .  S
C3927      C3932   1.424       .  A
C3927      C3936   1.408       .  A
C3928      H3944   1.101       .  S
C3928      H3945   1.111       .  S
C3928      H3946   1.095       .  S
C3930      H3941   1.110       .  S
C3930      H3942   1.110       .  S
C3930      H3943   1.107       .  S
C3932      C3933   1.402       .  A
C3932      C3937   1.492       .  S
C3933      C3934   1.392       .  A
C3933      H3938   1.085       .  S
C3934      C3935   1.407       .  A
C3935      C3936   1.414       .  A
C3935      C3939   1.498       .  S
C3936      H3940   1.073       .  S
C3937      H3947   1.111       .  S
C3937      H3948   1.107       .  S
C3937      H3949   1.104       .  S
C3939      H3950   1.099       .  S
C3939      H3951   1.110       .  S
C3939      H3952   1.105       .  S
C3953      C3954   1.402       .  A
C3953      C3958   1.409       .  A
C3953      H3963   1.077       .  S
C3954      C3959   1.483       .  S
C3954      C3955   1.398       .  A
C3955      C3956   1.401       .  A
C3955      C3960   1.495       .  S
C3956      C3957   1.405       .  A
C3956      H3961   1.083       .  S
C3957      C3958   1.413       .  A
C3958      C3962   1.502       .  S
C3959      C3964   1.404       .  A
C3959      C3968   1.406       .  A
C3960      H3976   1.106       .  S
C3960      H3977   1.106       .  S
C3960      H3978   1.083       .  S
C3962      H3973   1.110       .  S
C3962      H3974   1.101       .  S
C3962      H3975   1.110       .  S
C3964      C3965   1.396       .  A
C3964      C3969   1.485       .  S
C3965      C3966   1.394       .  A
C3965      H3970   1.083       .  S
C3966      C3967   1.411       .  A
C3967      C3968   1.403       .  A
C3967      C3971   1.504       .  S
C3968      H3972   1.081       .  S
C3969      H3979   1.097       .  S
C3969      H3980   1.100       .  S
C3969      H3981   1.104       .  S
C3971      H3982   1.110       .  S
C3971      H3983   1.109       .  S
C3971      H3984   1.111       .  S
C3985      C3986   1.403       .  A
C3985      C3990   1.388       .  A
C3985      H3995   1.083       .  S
C3986      C3991   1.483       .  S
C3986      C3987   1.429       .  A
C3987      C3988   1.398       .  A
C3987      C3992   1.512       .  S
C3988      C3989   1.395       .  A
C3989      C3990   1.396       .  A
C3990      C3994   1.507       .  S
C3991      C3996   1.412       .  A
C3991      C4000   1.416       .  A
C3992      H4008   1.104       .  S
C3992      H4009   1.111       .  S
C3994      H4005   1.110       .  S
C3994      H4006   1.105       .  S
C3994      H4007   1.106       .  S
C3996      C3997   1.387       .  A
C3996      C4001   1.497       .  S
C3997      C3998   1.391       .  A
C3997      H4002   1.083       .  S
C3998      C3999   1.397       .  A
C3999      C4000   1.402       .  A
C3999      C4003   1.503       .  S
C4000      H4004   1.082       .  S
C4001      H4011   1.104       .  S
C4001      H4012   1.101       .  S
C4001      H4013   1.108       .  S
C4003      H4014   1.110       .  S
C4003      H4015   1.110       .  S
C4003      H4016   1.109       .  S
C4017      C4018   1.407       .  A
C4017      C4022   1.413       .  A
C4017      H4027   1.084       .  S
C4018      C4023   1.508       .  S
C4018      C4019   1.415       .  A
C4019      C4020   1.411       .  A
C4019      C4024   1.499       .  S
C4020      C4021   1.403       .  A
C4020      H4025   1.082       .  S
C4021      C4022   1.418       .  A
C4022      C4026   1.507       .  S
C4023      C4028   1.417       .  A
C4023      C4032   1.415       .  A
C4024      H4040   1.104       .  S
C4024      H4041   1.098       .  S
C4024      H4042   1.104       .  S
C4026      H4037   1.109       .  S
C4026      H4039   1.109       .  S
C4028      C4029   1.396       .  A
C4028      C4033   1.493       .  S
C4029      C4030   1.393       .  A
C4029      H4034   1.085       .  S
C4030      C4031   1.403       .  A
C4031      C4032   1.412       .  A
C4031      C4035   1.503       .  S
C4032      H4036   1.078       .  S
C4033      H4043   1.105       .  S
C4033      H4044   1.098       .  S
C4033      H4045   1.107       .  S
C4035      H4046   1.110       .  S
C4035      H4047   1.110       .  S
C4035      H4048   1.109       .  S
C4049      C4050   1.410       .  A
C4049      C4054   1.402       .  A
C4049      H4059   1.078       .  S
C4050      C4055   1.502       .  S
C4050      C4051   1.421       .  A
C4051      C4052   1.399       .  A
C4051      C4056   1.500       .  S
C4052      C4053   1.394       .  A
C4052      H4057   1.085       .  S
C4053      C4054   1.405       .  A
C4054      C4058   1.505       .  S
C4055      C4060   1.426       .  A
C4055      C4064   1.409       .  A
C4056      H4072   1.101       .  S
C4056      H4073   1.105       .  S
C4058      H4069   1.109       .  S
C4058      H4070   1.109       .  S
C4058      H4071   1.107       .  S
C4060      C4061   1.396       .  A
C4060      C4065   1.506       .  S
C4061      C4062   1.396       .  A
C4061      H4066   1.085       .  S
C4062      C4063   1.402       .  A
C4063      C4064   1.402       .  A
C4063      C4067   1.507       .  S
C4064      H4068   1.074       .  S
C4065      H4075   1.110       .  S
C4065      H4076   1.111       .  S
C4065      H4077   1.099       .  S
C4067      H4078   1.108       .  S
C4067      H4079   1.110       .  S
C4067      H4080   1.104       .  S
C4081      C4082   1.405       .  A
C4081      C4086   1.396       .  A
C4081      H4091   1.059       .  S
C4082      C4087   1.493       .  S
C4082      C4083   1.415       .  A
C4083      C4084   1.397       .  A
C4083      C4088   1.495       .  S
C4084      C4085   1.391       .  A
C4084      H4089   1.085       .  S
C4085      C4086   1.401       .  A
C4086      C4090   1.507       .  S
C4087      C4092   1.418       .  A
C4087      C4096   1.401       .  A
C4088      H4104   1.103       .  S
C4088      H4105   1.099       .  S
C4090      H4101   1.111       .  S
C4090      H4102   1.110       .  S
C4090      H4103   1.108       .  S
C4092      C4093   1.401       .  A
C4092      C4097   1.503       .  S
C4093      C4094   1.404       .  A
C4093      H4098   1.085       .  S
C4094      C4095   1.419       .  A
C4095      C4096   1.403       .  A
C4095      C4099   1.505       .  S
C4096      H4100   1.084       .  S
C4097      H4107   1.107       .  S
C4097      H4108   1.103       .  S
C4097      H4109   1.101       .  S
C4099      H4110   1.109       .  S
C4099      H4111   1.110       .  S
C4099      H4112   1.111       .  S
C4113      C4114   1.399       .  A
C4113      C4118   1.408       .  A
C4113      H4123   1.065       .  S
C4114      C4119   1.514       .  S
C4114      C4115   1.411       .  A
C4115      C4116   1.416       .  A
C4115      C4120   1.490       .  S
C4116      C4117   1.404       .  A
C4116      H4121   1.084       .  S
C4117      C4118   1.406       .  A
C4118      C4122   1.507       .  S
C4119      C4124   1.423       .  A
C4119      C4128   1.406       .  A
C4120      H4136   1.106       .  S
C4120      H4137   1.107       .  S
C4120      H4138   1.103       .  S
C4122      H4133   1.103       .  S
C4122      H4134   1.107       .  S
C4122      H4135   1.108       .  S
C4124      C4125   1.402       .  A
C4124      C4129   1.498       .  S
C4125      C4126   1.402       .  A
C4125      H4130   1.085       .  S
C4126      C4127   1.416       .  A
C4127      C4128   1.409       .  A
C4127      C4131   1.507       .  S
C4128      H4132   1.072       .  S
C4129      H4139   1.107       .  S
C4129      H4140   1.109       .  S
C4129      H4141   1.099       .  S
C4131      H4142   1.106       .  S
C4131      H4143   1.110       .  S
C4131      H4144   1.109       .  S
C4145      C4146   1.400       .  A
C4145      C4150   1.398       .  A
C4145      H4155   1.069       .  S
C4146      C4151   1.498       .  S
C4146      C4147   1.411       .  A
C4147      C4148   1.407       .  A
C4147      C4152   1.494       .  S
C4148      C4149   1.404       .  A
C4148      H4153   1.084       .  S
C4149      C4150   1.407       .  A
C4150      C4154   1.506       .  S
C4151      C4156   1.407       .  A
C4151      C4160   1.410       .  A
C4152      H4168   1.101       .  S
C4152      H4169   1.105       .  S
C4152      H4170   1.107       .  S
C4154      H4165   1.108       .  S
C4156      C4157   1.399       .  A
C4156      C4161   1.500       .  S
C4157      C4158   1.402       .  A
C4157      H4162   1.084       .  S
C4158      C4159   1.408       .  A
C4159      C4160   1.412       .  A
C4159      C4163   1.504       .  S
C4160      H4164   1.074       .  S
C4161      H4171   1.108       .  S
C4161      H4172   1.096       .  S
C4161      H4173   1.103       .  S
C4163      H4174   1.109       .  S
C4163      H4175   1.110       .  S
C4163      H4176   1.109       .  S
C4177      C4178   1.402       .  A
C4177      C4182   1.394       .  A
C4177      H4187   1.082       .  S
C4178      C4183   1.509       .  S
C4178      C4179   1.431       .  A
C4179      C4180   1.414       .  A
C4179      C4184   1.511       .  S
C4180      C4181   1.406       .  A
C4180      H4185   1.084       .  S
C4181      C4182   1.403       .  A
C4182      C4186   1.503       .  S
C4183      C4188   1.429       .  A
C4183      C4192   1.410       .  A
C4184      H4200   1.098       .  S
C4184      H4201   1.105       .  S
C4184      H4202   1.110       .  S
C4186      H4197   1.103       .  S
C4186      H4198   1.102       .  S
C4186      H4199   1.110       .  S
C4188      C4189   1.394       .  A
C4188      C4193   1.511       .  S
C4189      C4190   1.394       .  A
C4189      H4194   1.082       .  S
C4190      C4191   1.412       .  A
C4191      C4192   1.409       .  A
C4191      C4195   1.505       .  S
C4192      H4196   1.078       .  S
C4193      H4203   1.104       .  S
C4193      H4204   1.109       .  S
C4193      H4205   1.107       .  S
C4195      H4206   1.108       .  S
C4195      H4207   1.110       .  S
C4195      H4208   1.109       .  S
