geometry optimzed in LAMMPS
_audit_creation_date              2020-11-30 
_audit_creation_method            'lammps2cif' 
_symmetry_space_group_name_H-M    'P1' 
_symmetry_Int_Tables_number       1 
_symmetry_cell_setting            triclinic 
loop_ 
_symmetry_equiv_pos_as_xyz 
  x,y,z 
_cell_length_a                    30.84272444 
_cell_length_b                    30.85422139860199 
_cell_length_c                    123.42329008978493 
_cell_angle_alpha                 90.02589566983208 
_cell_angle_beta                  90.01319022139083 
_cell_angle_gamma                 90.0589460699657 
loop_ 
_atom_site_label 
_atom_site_type_symbol 
_atom_site_fract_x 
_atom_site_fract_y 
_atom_site_fract_z 
_atom_site_charge 
O1          O  0.04146152  0.91944395  0.68667003    -0.72400
O2          O  0.04393115  0.05053177  0.68759382    -0.73400
O3          O  0.04369753  0.98347781  0.70349918    -0.62000
O4          O  0.04298369  0.98612802  0.67089188    -0.70400
O5          O  0.97114676  0.98379502  0.67097107    -0.70000
O6          O  0.97229157  0.98780192  0.70380116    -0.61200
O7          O  0.97200282  0.05051251  0.68690794    -0.73700
O8          O  0.96963739  0.92046751  0.68770998    -0.72500
Cu9        Cu  0.04552295  0.98482034  0.68719208     1.04600
Cu10       Cu  0.96879384  0.98566569  0.68738040     1.04300
C11         C  0.00511124  0.89942500  0.68691086     0.93800
C12         C  0.00792374  0.07103780  0.68717734     0.92900
C13         C  0.00845978  0.98638376  0.70889527     0.85100
C14         C  0.00703897  0.98457329  0.66575615     0.91300
O15         O  0.96497923  0.48578315  0.66802913    -0.72400
O16         O  0.96383423  0.48827190  0.70064428    -0.73400
O17         O  0.96784570  0.55215169  0.68398017    -0.62000
O18         O  0.96153121  0.42146317  0.68459572    -0.70400
O19         O  0.03324451  0.41935763  0.68487402    -0.70000
O20         O  0.03959366  0.54911495  0.68425638    -0.61200
O21         O  0.03521306  0.48474460  0.70087982    -0.73700
O22         O  0.03680920  0.48317309  0.66824195    -0.72500
Cu23       Cu  0.96204609  0.48702215  0.68432118     1.04600
Cu24       Cu  0.03864619  0.48397083  0.68457942     1.04300
C25         C  0.00110725  0.48445133  0.66297379     0.93800
C26         C  0.99925290  0.48666711  0.70601070     0.92900
C27         C  0.00467204  0.57129234  0.68390702     0.85100
C28         C  0.99679702  0.39967818  0.68477035     0.91300
O29         O  0.46777737  0.93973598  0.68927978    -0.72400
O30         O  0.46562852  0.06960317  0.69026801    -0.73400
O31         O  0.46576537  0.00704672  0.67352424    -0.62000
O32         O  0.46823851  0.00190609  0.70622583    -0.70400
O33         O  0.54018262  0.00434630  0.70581970    -0.70000
O34         O  0.53768116  0.00690867  0.67336063    -0.61200
O35         O  0.53751130  0.07048168  0.68976189    -0.73700
O36         O  0.53976458  0.94021411  0.68933581    -0.72500
Cu37       Cu  0.46430661  0.00452583  0.68986285     1.04600
Cu38       Cu  0.54125058  0.00553377  0.68957746     1.04300
C39         C  0.50386717  0.91947553  0.68917710     0.93800
C40         C  0.50130923  0.09061580  0.68985773     0.92900
C41         C  0.50156527  0.00793533  0.66829852     0.85100
C42         C  0.50476796  0.00213776  0.71114293     0.91300
O43         O  0.52987728  0.50730171  0.67205309    -0.72400
O44         O  0.52820880  0.50560577  0.70465228    -0.73400
O45         O  0.53177174  0.44143462  0.68813461    -0.62000
O46         O  0.52741539  0.57119640  0.68853522    -0.70400
O47         O  0.45547644  0.56955566  0.68874987    -0.70000
O48         O  0.45995808  0.43835024  0.68734603    -0.61200
O49         O  0.45637677  0.50100981  0.70426990    -0.73700
O50         O  0.45799672  0.50635626  0.67180349    -0.72500
Cu51       Cu  0.53176194  0.50647636  0.68835460     1.04600
Cu52       Cu  0.45488574  0.50375975  0.68803744     1.04300
C53         C  0.49418364  0.50712793  0.66677518     0.93800
C54         C  0.49186625  0.50275268  0.70958354     0.92900
C55         C  0.49680449  0.41932276  0.68763022     0.85100
C56         C  0.49108287  0.59094815  0.68871624     0.91300
O57         O  0.07605863  0.96035379  0.81350337    -0.72400
O58         O  0.94614272  0.97082805  0.81318987    -0.73400
O59         O  0.01105160  0.96537791  0.79706052    -0.62000
O60         O  0.00986907  0.96588414  0.82972088    -0.70400
O61         O  0.01607229  0.03702430  0.82964582    -0.70000
O62         O  0.01651966  0.03691753  0.79682295    -0.61200
O63         O  0.95151754  0.04250326  0.81310326    -0.73700
O64         O  0.08132575  0.03193363  0.81333282    -0.72500
Cu65       Cu  0.01063298  0.96318109  0.81338935     1.04600
Cu66       Cu  0.01659322  0.03957494  0.81324797     1.04300
C67         C  0.09937339  0.99464556  0.81336931     0.93800
C68         C  0.92833818  0.00818127  0.81294385     0.92900
C69         C  0.01373049  0.00085184  0.79173813     0.85100
C70         C  0.01249765  0.00156225  0.83495065     0.91300
O71         O  0.98998056  0.46689678  0.79425122    -0.72400
O72         O  0.98706298  0.47396738  0.82664406    -0.73400
O73         O  0.92385903  0.46692981  0.81012416    -0.62000
O74         O  0.05376162  0.47368184  0.81083794    -0.70400
O75         O  0.05139694  0.54534137  0.81030880    -0.70000
O76         O  0.92098517  0.53847650  0.80875976    -0.61200
O77         O  0.98345291  0.54578429  0.82574401    -0.73700
O78         O  0.98935496  0.53846252  0.79323611    -0.72500
Cu79       Cu  0.98881812  0.46794375  0.81048791     1.04600
Cu80       Cu  0.98609627  0.54455839  0.80945809     1.04300
C81         C  0.99043626  0.50149075  0.78856411     0.93800
C82         C  0.98479011  0.51087263  0.83129370     0.92900
C83         C  0.90177373  0.50175475  0.80931964     0.85100
C84         C  0.07329986  0.51025023  0.81089228     0.91300
O85         O  0.45203859  0.95716145  0.81451222    -0.72400
O86         O  0.58266838  0.96445914  0.81502493    -0.73400
O87         O  0.51602010  0.96395119  0.83107473    -0.62000
O88         O  0.51927878  0.95714177  0.79853440    -0.70400
O89         O  0.51355513  0.02882716  0.79770178    -0.70000
O90         O  0.51416144  0.03584095  0.83019911    -0.61200
O91         O  0.57847118  0.03609814  0.81372710    -0.73700
O92         O  0.44884794  0.02886387  0.81399463    -0.72500
Cu93       Cu  0.51767457  0.95811891  0.81483801     1.04600
Cu94       Cu  0.51365038  0.03485461  0.81389168     1.04300
C95         C  0.42973037  0.99211413  0.81422788     0.93800
C96         C  0.60103012  0.00148913  0.81420158     0.92900
C97         C  0.51468626  0.00089685  0.83574357     0.85100
C98         C  0.51665773  0.99203705  0.79301035     0.91300
O99         O  0.42080396  0.46681470  0.81316113    -0.72400
O100        O  0.55121049  0.46011812  0.81240033    -0.73400
O101        O  0.48727614  0.46282485  0.82906583    -0.62000
O102        O  0.48458349  0.46358873  0.79658530    -0.70400
O103        O  0.48595757  0.53555200  0.79663417    -0.70000
O104        O  0.49309707  0.53400746  0.82912043    -0.61200
O105        O  0.55427131  0.53192292  0.81200368    -0.73700
O106        O  0.42445353  0.53862280  0.81377133    -0.72500
Cu107      Cu  0.48581882  0.46083413  0.81281636     1.04600
Cu108      Cu  0.48955246  0.53750716  0.81290399     1.04300
C109        C  0.40211891  0.50376227  0.81356384     0.93800
C110        C  0.57329009  0.49516231  0.81190333     0.92900
C111        C  0.49097082  0.49828369  0.83433050     0.85100
C112        C  0.48476556  0.49960324  0.79149089     0.91300
O113        O  0.03796025  0.00254978  0.29654836    -0.72400
O114        O  0.04131273  0.00332525  0.32895980    -0.73400
O115        O  0.03955416  0.93825864  0.31277140    -0.62000
O116        O  0.03890530  0.06861589  0.31251613    -0.70400
O117        O  0.96703996  0.06822840  0.31343415    -0.70000
O118        O  0.96762535  0.93801957  0.31310260    -0.61200
O119        O  0.96954939  0.00237840  0.32961770    -0.73700
O120        O  0.96600784  0.00343137  0.29709112    -0.72500
Cu121      Cu  0.04192609  0.00328055  0.31271406     1.04600
Cu122      Cu  0.96503492  0.00304262  0.31334864     1.04300
C123        C  0.00140393  0.00270326  0.29170639     0.93800
C124        C  0.00622905  0.00242769  0.33445282     0.92900
C125        C  0.00361650  0.91759424  0.31282974     0.85100
C126        C  0.00280886  0.08897837  0.31278438     0.91300
O127        O  0.04278209  0.50248069  0.29347116    -0.72400
O128        O  0.04025420  0.50326560  0.32583013    -0.73400
O129        O  0.03991946  0.43766931  0.30975197    -0.62000
O130        O  0.04202957  0.56810467  0.30980356    -0.70400
O131        O  0.97025598  0.56863498  0.30944554    -0.70000
O132        O  0.96804493  0.43869099  0.30919157    -0.61200
O133        O  0.96823547  0.50324046  0.32554873    -0.73700
O134        O  0.97076595  0.50414536  0.29299026    -0.72500
Cu135      Cu  0.04372996  0.50282814  0.30969595     1.04600
Cu136      Cu  0.96678795  0.50372530  0.30926013     1.04300
C137        C  0.00734868  0.50319923  0.28814151     0.93800
C138        C  0.00399244  0.50345954  0.33079116     0.92900
C139        C  0.00362758  0.41758180  0.30953159     0.85100
C140        C  0.00627136  0.58905933  0.30989056     0.91300
O141        O  0.53402002  0.93335222  0.31491043    -0.72400
O142        O  0.54047733  0.06307398  0.31409621    -0.73400
O143        O  0.54041038  0.99989105  0.33088091    -0.62000
O144        O  0.53403937  0.99672140  0.29832048    -0.70400
O145        O  0.46235179  0.00081200  0.29920787    -0.70000
O146        O  0.46866031  0.00290655  0.33168767    -0.61200
O147        O  0.46873766  0.06672917  0.31504567    -0.73700
O148        O  0.46227935  0.93644810  0.31558327    -0.72500
Cu149      Cu  0.53970987  0.99813471  0.31454457     1.04600
Cu150      Cu  0.46299826  0.00184193  0.31543592     1.04300
C151        C  0.49724378  0.91425575  0.31514939     0.93800
C152        C  0.50564736  0.08540362  0.31436661     0.92900
C153        C  0.50549423  0.00201394  0.33643867     0.85100
C154        C  0.49713748  0.99832480  0.29362533     0.91300
O155        O  0.53412063  0.43584278  0.31275928    -0.72400
O156        O  0.52792724  0.56548753  0.31333270    -0.73400
O157        O  0.53148397  0.49912135  0.32922067    -0.62000
O158        O  0.53007164  0.50184139  0.29678161    -0.70400
O159        O  0.45893273  0.49559832  0.29672957    -0.70000
O160        O  0.45951127  0.49821436  0.32935977    -0.61200
O161        O  0.45611819  0.56284725  0.31275685    -0.73700
O162        O  0.46243941  0.43183495  0.31333141    -0.72500
Cu163      Cu  0.53325318  0.50073623  0.31299943     1.04600
Cu164      Cu  0.45663602  0.49705752  0.31303755     1.04300
C165        C  0.49948412  0.41320314  0.31312393     0.93800
C166        C  0.49133177  0.58480164  0.31314061     0.92900
C167        C  0.49571025  0.49823206  0.33441740     0.85100
C168        C  0.49460866  0.49837501  0.29150611     0.91300
O169        O  0.96199586  0.06787181  0.43756893    -0.72400
O170        O  0.96575986  0.93748192  0.43676101    -0.73400
O171        O  0.95985195  0.00031789  0.45349616    -0.62000
O172        O  0.96840952  0.00398243  0.42099812    -0.70400
O173        O  0.04030642  0.00302425  0.42198406    -0.70000
O174        O  0.03107149  0.00602061  0.45416429    -0.61200
O175        O  0.03728717  0.93919216  0.43832417    -0.73700
O176        O  0.03389210  0.06989287  0.43764161    -0.72500
Cu177      Cu  0.96144413  0.00243423  0.43717963     1.04600
Cu178      Cu  0.03806888  0.00466297  0.43811334     1.04300
C179        C  0.99739324  0.08949050  0.43747311     0.93800
C180        C  0.00205326  0.91765128  0.43731635     0.92900
C181        C  0.99478543  0.00226474  0.45904524     0.85100
C182        C  0.00554494  0.00328789  0.41639372     0.91300
O183        O  0.96340818  0.56954503  0.43404581    -0.72400
O184        O  0.95965557  0.43959055  0.43386769    -0.73400
O185        O  0.95952337  0.50406161  0.45024088    -0.62000
O186        O  0.96374838  0.50480799  0.41765249    -0.70400
O187        O  0.03557215  0.50466867  0.41810442    -0.70000
O188        O  0.03148581  0.50207073  0.45064278    -0.61200
O189        O  0.03141326  0.43838351  0.43392300    -0.73700
O190        O  0.03523275  0.56797936  0.43477921    -0.72500
Cu191      Cu  0.95907208  0.50461044  0.43391360     1.04600
Cu192      Cu  0.03590706  0.50317075  0.43437733     1.04300
C193        C  0.99979510  0.58931605  0.43451751     0.93800
C194        C  0.99514521  0.41829333  0.43393068     0.92900
C195        C  0.99505140  0.50292415  0.45556245     0.85100
C196        C  0.00019502  0.50493335  0.41271754     0.91300
O197        O  0.54120659  0.06539532  0.44062536    -0.72400
O198        O  0.53577135  0.93470489  0.44016952    -0.73400
O199        O  0.54079418  0.00033012  0.42419441    -0.62000
O200        O  0.53598429  0.99908156  0.45677893    -0.70400
O201        O  0.46473384  0.00412222  0.45603102    -0.70000
O202        O  0.46906710  0.00202432  0.42365555    -0.61200
O203        O  0.46392446  0.93753161  0.43996722    -0.73700
O204        O  0.46940375  0.06758286  0.43947064    -0.72500
Cu205      Cu  0.54101812  0.99975321  0.44050480     1.04600
Cu206      Cu  0.46439106  0.00283792  0.43980506     1.04300
C207        C  0.50595297  0.08696779  0.43983392     0.93800
C208        C  0.49900800  0.91555522  0.43980108     0.92900
C209        C  0.50551062  0.00127966  0.41875288     0.85100
C210        C  0.49947762  0.00197916  0.46163146     0.91300
O211        O  0.46126041  0.49847916  0.42153173    -0.72400
O212        O  0.45753752  0.50454879  0.45404527    -0.73400
O213        O  0.46077130  0.56674935  0.43715535    -0.62000
O214        O  0.45868845  0.43616098  0.43844624    -0.70400
O215        O  0.53060293  0.43594683  0.43869230    -0.70000
O216        O  0.53258777  0.56587372  0.43794114    -0.61200
O217        O  0.52951057  0.50247322  0.45460484    -0.73700
O218        O  0.53315436  0.49908584  0.42198234    -0.72500
Cu219      Cu  0.45705559  0.50150370  0.43778834     1.04600
Cu220      Cu  0.53396197  0.50079572  0.43833614     1.04300
C221        C  0.49769601  0.49792160  0.41660622     0.93800
C222        C  0.49290103  0.50449520  0.45942396     0.92900
C223        C  0.49701397  0.58694681  0.43741829     0.85100
C224        C  0.49458300  0.41545744  0.43856090     0.91300
O225        O  0.00843924  0.03860998  0.04738422    -0.72400
O226        O  0.00300814  0.03659485  0.07986103    -0.73400
O227        O  0.07081224  0.03507337  0.06411640    -0.62000
O228        O  0.94108029  0.04072101  0.06289958    -0.70400
O229        O  0.93801678  0.96886756  0.06305354    -0.70000
O230        O  0.06830829  0.96326239  0.06349447    -0.61200
O231        O  0.00203329  0.96463517  0.07958738    -0.73700
O232        O  0.00377544  0.96670913  0.04717881    -0.72500
Cu233      Cu  0.00605606  0.04025770  0.06359364     1.04600
Cu234      Cu  0.00302645  0.96334215  0.06333033     1.04300
C235        C  0.00608544  0.00286815  0.04219922     0.93800
C236        C  0.00129568  0.00029181  0.08483813     0.92900
C237        C  0.09014357  0.99849074  0.06379193     0.85100
C238        C  0.91900419  0.00568794  0.06281221     0.91300
O239        O  0.08011251  0.45985737  0.06042400    -0.72400
O240        O  0.94920878  0.45777405  0.06043333    -0.73400
O241        O  0.01414840  0.45662351  0.04409482    -0.62000
O242        O  0.01464928  0.45989425  0.07658360    -0.70400
O243        O  0.01296257  0.53178958  0.07624951    -0.70000
O244        O  0.01408282  0.52848026  0.04354528    -0.61200
O245        O  0.94906267  0.52957400  0.05986835    -0.73700
O246        O  0.07892121  0.53160053  0.06007867    -0.72500
Cu247      Cu  0.01465587  0.45604093  0.06037107     1.04600
Cu248      Cu  0.01379805  0.53284210  0.05989477     1.04300
C249        C  0.10025016  0.49615448  0.06047107     0.93800
C250        C  0.92849534  0.49367641  0.06023103     0.92900
C251        C  0.01359162  0.49186443  0.03867174     0.85100
C252        C  0.01334964  0.49617819  0.08155175     0.91300
O253        O  0.50772543  0.97088568  0.04812447    -0.72400
O254        O  0.50694599  0.97055615  0.08055149    -0.73400
O255        O  0.44190216  0.96700711  0.06403283    -0.62000
O256        O  0.57208737  0.97440129  0.06420100    -0.70400
O257        O  0.56799056  0.04617289  0.06469432    -0.70000
O258        O  0.43770207  0.03855756  0.06444637    -0.61200
O259        O  0.50181581  0.04172484  0.08101033    -0.73700
O260        O  0.50306632  0.04249366  0.04837100    -0.72500
Cu261      Cu  0.50724495  0.96828375  0.06427167     1.04600
Cu262      Cu  0.50252138  0.04475842  0.06465421     1.04300
C263        C  0.50577266  0.00692662  0.04308719     0.93800
C264        C  0.50408680  0.00557333  0.08604262     0.92900
C265        C  0.41908424  0.00158634  0.06400752     0.85100
C266        C  0.59055962  0.01147189  0.06424054     0.91300
O267        O  0.44976366  0.46536644  0.06377444    -0.72400
O268        O  0.58001795  0.46777532  0.06259213    -0.73400
O269        O  0.51771963  0.46947801  0.07933650    -0.62000
O270        O  0.51226714  0.46223166  0.04696391    -0.70400
O271        O  0.51324779  0.53400688  0.04595970    -0.70000
O272        O  0.51458445  0.54132325  0.07864597    -0.61200
O273        O  0.57914213  0.53968294  0.06220244    -0.73700
O274        O  0.44908754  0.53711979  0.06234487    -0.72500
Cu275      Cu  0.51501401  0.46374059  0.06320859     1.04600
Cu276      Cu  0.51398017  0.54057673  0.06225875     1.04300
C277        C  0.42894923  0.50107392  0.06307088     0.93800
C278        C  0.60012525  0.50403600  0.06230901     0.92900
C279        C  0.51695956  0.50616985  0.08410863     0.85100
C280        C  0.51179833  0.49689954  0.04132206     0.91300
O281        O  0.98167085  0.03906656  0.20481577    -0.72400
O282        O  0.97339422  0.03733056  0.17224650    -0.73400
O283        O  0.91207373  0.03876812  0.18949815    -0.62000
O284        O  0.04229093  0.03890841  0.18758979    -0.70400
O285        O  0.04243039  0.96710185  0.18828611    -0.70000
O286        O  0.91193812  0.96691845  0.18887249    -0.61200
O287        O  0.97645666  0.96600282  0.17236252    -0.73700
O288        O  0.97901903  0.96717898  0.20479723    -0.72500
Cu289      Cu  0.97723722  0.04105000  0.18852573     1.04600
Cu290      Cu  0.97732097  0.96434659  0.18859121     1.04300
C291        C  0.98191048  0.00301591  0.20992433     0.93800
C292        C  0.97485960  0.00145973  0.16705545     0.92900
C293        C  0.89139906  0.00286368  0.18932915     0.85100
C294        C  0.06297117  0.00306974  0.18781122     0.91300
O295        O  0.07239968  0.46572867  0.18477017    -0.72400
O296        O  0.94180819  0.46580294  0.18559308    -0.73400
O297        O  0.00565574  0.46444560  0.16896886    -0.62000
O298        O  0.00891354  0.46726025  0.20143335    -0.70400
O299        O  0.00853235  0.53928341  0.20112571    -0.70000
O300        O  0.00658982  0.53634925  0.16864504    -0.61200
O301        O  0.94207522  0.53759146  0.18514014    -0.73700
O302        O  0.07316496  0.53753469  0.18453817    -0.72500
Cu303      Cu  0.00716417  0.46335812  0.18521990     1.04600
Cu304      Cu  0.00756303  0.54023656  0.18485984     1.04300
C305        C  0.09350404  0.50139417  0.18444324     0.93800
C306        C  0.92119721  0.50172598  0.18541580     0.92900
C307        C  0.00609620  0.50001670  0.16367653     0.85100
C308        C  0.00913250  0.50362521  0.20636831     0.91300
O309        O  0.41209619  0.03337803  0.18939060    -0.72400
O310        O  0.54198918  0.03322402  0.19048619    -0.73400
O311        O  0.47929574  0.03405435  0.17359486    -0.62000
O312        O  0.47559966  0.03276963  0.20623976    -0.70400
O313        O  0.47286601  0.96137111  0.20602483    -0.70000
O314        O  0.48186533  0.96214319  0.17350655    -0.61200
O315        O  0.54218445  0.96136364  0.19087306    -0.73700
O316        O  0.41202355  0.96153765  0.18861347    -0.72500
Cu317      Cu  0.47711998  0.03586310  0.18994216     1.04600
Cu318      Cu  0.47710321  0.95912910  0.18976097     1.04300
C319        C  0.39152294  0.99749947  0.18872333     0.93800
C320        C  0.56266589  0.99737398  0.19083000     0.92900
C321        C  0.48210487  0.99823297  0.16842931     0.85100
C322        C  0.47422684  0.99683369  0.21137653     0.91300
O323        O  0.51041218  0.45869054  0.17099188    -0.72400
O324        O  0.50749169  0.45813921  0.20356248    -0.73400
O325        O  0.44371927  0.45414087  0.18682610    -0.62000
O326        O  0.57380360  0.46229635  0.18748325    -0.70400
O327        O  0.56971377  0.53411654  0.18799371    -0.70000
O328        O  0.44034469  0.52599112  0.18658136    -0.61200
O329        O  0.50171046  0.52925384  0.20350591    -0.73700
O330        O  0.50758091  0.53054478  0.17119058    -0.72500
Cu331      Cu  0.50899553  0.45573466  0.18724862     1.04600
Cu332      Cu  0.50467706  0.53238467  0.18735428     1.04300
C333        C  0.50995857  0.49490227  0.16596652     0.93800
C334        C  0.50374453  0.49375146  0.20878154     0.92900
C335        C  0.42160598  0.48909604  0.18635602     0.85100
C336        C  0.59220259  0.49941862  0.18766192     0.91300
O337        O  0.00046297  0.04315159  0.95496485    -0.72400
O338        O  0.00087815  0.04151815  0.92224979    -0.73400
O339        O  0.93535520  0.04584674  0.93860062    -0.62000
O340        O  0.06523038  0.04077920  0.93864176    -0.70400
O341        O  0.06263817  0.96898277  0.93888058    -0.70000
O342        O  0.93196934  0.97398827  0.93889368    -0.61200
O343        O  0.99726288  0.96961644  0.92259838    -0.73700
O344        O  0.99657426  0.97173810  0.95494066    -0.72500
Cu345      Cu  0.00051205  0.04533587  0.93858053     1.04600
Cu346      Cu  0.99703735  0.96860795  0.93880983     1.04300
C347        C  0.99839798  0.00733240  0.96017596     0.93800
C348        C  0.99941866  0.00507755  0.91731526     0.92900
C349        C  0.91318005  0.01092644  0.93899653     0.85100
C350        C  0.08456941  0.00424515  0.93882692     0.91300
O351        O  0.99398988  0.46262563  0.91829056    -0.72400
O352        O  0.00309829  0.45483615  0.95087145    -0.73400
O353        O  0.93376995  0.45180148  0.93574029    -0.62000
O354        O  0.06357897  0.46430057  0.93357383    -0.70400
O355        O  0.05771875  0.53558225  0.93530879    -0.70000
O356        O  0.92719185  0.52337163  0.93606087    -0.61200
O357        O  0.99450404  0.52606287  0.95182643    -0.73700
O358        O  0.99096599  0.53386848  0.91937616    -0.72500
Cu359      Cu  0.99882288  0.45590566  0.93455459     1.04600
Cu360      Cu  0.99230705  0.53216212  0.93566669     1.04300
C361        C  0.99194229  0.49955765  0.91358939     0.93800
C362        C  0.99973790  0.48951126  0.95649672     0.92900
C363        C  0.90997147  0.48560380  0.93622896     0.85100
C364        C  0.08124340  0.50167653  0.93435280     0.91300
O365        O  0.56565604  0.97237867  0.94029131    -0.72400
O366        O  0.43543909  0.97049838  0.93968812    -0.73400
O367        O  0.50158299  0.97088404  0.92353651    -0.62000
O368        O  0.50037452  0.97193782  0.95615631    -0.70400
O369        O  0.49793558  0.04386622  0.95600345    -0.70000
O370        O  0.50227357  0.04226787  0.92341811    -0.61200
O371        O  0.43437227  0.04223283  0.93929663    -0.73700
O372        O  0.56481012  0.04426227  0.94049551    -0.72500
Cu373      Cu  0.50069772  0.96895808  0.93989908     1.04600
Cu374      Cu  0.49970653  0.04564632  0.93976382     1.04300
C375        C  0.58574905  0.00857192  0.94076365     0.93800
C376        C  0.41415588  0.00602851  0.93947902     0.92900
C377        C  0.50260192  0.00640731  0.91820783     0.85100
C378        C  0.49977557  0.00810829  0.96119419     0.91300
O379        O  0.49953984  0.52399332  0.92186352    -0.72400
O380        O  0.49860112  0.52126588  0.95424422    -0.73400
O381        O  0.56416326  0.51492733  0.93810798    -0.62000
O382        O  0.43411120  0.52888516  0.93792732    -0.70400
O383        O  0.42722604  0.45738420  0.93768670    -0.70000
O384        O  0.55707949  0.44349541  0.93752822    -0.61200
O385        O  0.49242616  0.44958949  0.95397355    -0.73700
O386        O  0.49122787  0.45247415  0.92130583    -0.72500
Cu387      Cu  0.49941534  0.52470828  0.93804540     1.04600
Cu388      Cu  0.49174254  0.44820262  0.93760763     1.04300
C389        C  0.49499072  0.48896847  0.91649272     0.93800
C390        C  0.49548435  0.48519434  0.95924125     0.92900
C391        C  0.58126215  0.47712971  0.93792645     0.85100
C392        C  0.41007078  0.49507148  0.93774250     0.91300
O393        O  0.03567479  0.99151871  0.54585444    -0.72400
O394        O  0.03661355  0.99183746  0.57827109    -0.73400
O395        O  0.03894027  0.92649108  0.56199086    -0.62000
O396        O  0.03367477  0.05663852  0.56184884    -0.70400
O397        O  0.96187925  0.05455920  0.56184002    -0.70000
O398        O  0.96708363  0.92393309  0.56263181    -0.61200
O399        O  0.96468288  0.99067031  0.57854940    -0.73700
O400        O  0.96371104  0.98731814  0.54607801    -0.72500
Cu401      Cu  0.03870681  0.99176927  0.56200674     1.04600
Cu402      Cu  0.96180574  0.98905483  0.56228709     1.04300
C403        C  0.99945217  0.98926545  0.54089159     0.93800
C404        C  0.00095113  0.99089680  0.58354633     0.92900
C405        C  0.00374860  0.90462868  0.56230639     0.85100
C406        C  0.99722666  0.07629675  0.56168204     0.91300
O407        O  0.96889375  0.55598773  0.55980887    -0.72400
O408        O  0.96752981  0.42628049  0.55929315    -0.73400
O409        O  0.96936602  0.49058507  0.57577120    -0.62000
O410        O  0.96739566  0.49186781  0.54328723    -0.70400
O411        O  0.03880000  0.49346819  0.54291895    -0.70000
O412        O  0.04126915  0.48712598  0.57548413    -0.61200
O413        O  0.03933797  0.42474624  0.55839360    -0.73700
O414        O  0.04075423  0.55519079  0.55997155    -0.72500
Cu415      Cu  0.96587751  0.49115573  0.55953564     1.04600
Cu416      Cu  0.04261046  0.49007535  0.55917082     1.04300
C417        C  0.00503079  0.57617881  0.56011914     0.93800
C418        C  0.00292589  0.40493825  0.55876900     0.92900
C419        C  0.00561053  0.48863298  0.58075130     0.85100
C420        C  0.00262853  0.49346929  0.53786322     0.91300
O421        O  0.52682387  0.01116376  0.54828041    -0.72400
O422        O  0.53199352  0.01592154  0.58069281    -0.73400
O423        O  0.53022499  0.94824011  0.56495729    -0.62000
O424        O  0.52775525  0.07898799  0.56383908    -0.70400
O425        O  0.45613071  0.07674245  0.56442104    -0.70000
O426        O  0.45837046  0.94725827  0.56555901    -0.61200
O427        O  0.46009858  0.01386882  0.58137536    -0.73700
O428        O  0.45478769  0.01013491  0.54892008    -0.72500
Cu429      Cu  0.53177279  0.01364636  0.56443400     1.04600
Cu430      Cu  0.45490939  0.01198861  0.56512158     1.04300
C431        C  0.49007968  0.01008309  0.54353029     0.93800
C432        C  0.49684927  0.01522264  0.58615901     0.92900
C433        C  0.49450088  0.92713631  0.56528487     0.85100
C434        C  0.49121512  0.09861378  0.56381376     0.91300
O435        O  0.52452453  0.50980604  0.57924358    -0.72400
O436        O  0.52301640  0.51279710  0.54678753    -0.73400
O437        O  0.52695349  0.57645829  0.56337104    -0.62000
O438        O  0.52113109  0.44656134  0.56262862    -0.70400
O439        O  0.44921815  0.44898662  0.56207504    -0.70000
O440        O  0.45519285  0.57934700  0.56426809    -0.61200
O441        O  0.45186717  0.51877454  0.54693913    -0.73700
O442        O  0.45260623  0.50992750  0.57954428    -0.72500
Cu443      Cu  0.52631951  0.51128734  0.56299829     1.04600
Cu444      Cu  0.44964266  0.51435111  0.56321154     1.04300
C445        C  0.48894215  0.50918023  0.58454208     0.93800
C446        C  0.48736375  0.51676242  0.54161856     0.92900
C447        C  0.49198854  0.59847290  0.56400886     0.85100
C448        C  0.48452117  0.42730690  0.56217059     0.91300
C449        C  0.52431699  0.80989805  0.57171710    -0.04900
C450        C  0.49573633  0.78699884  0.56487250     0.09200
C451        C  0.46612863  0.80992573  0.55833346    -0.02300
C452        C  0.46545479  0.85563528  0.55851394    -0.00600
C453        C  0.49473678  0.87884992  0.56521544    -0.04200
C454        C  0.52385247  0.85563462  0.57190782     0.02800
C455        C  0.49579085  0.73849846  0.56480318     0.09700
C456        C  0.43591475  0.78622710  0.55152804     0.35600
C457        C  0.55170525  0.87866924  0.57943732     0.39000
C458        C  0.47134251  0.71545038  0.57254574    -0.04600
C459        C  0.47063572  0.66972738  0.57240370     0.02600
C460        C  0.49405682  0.64666431  0.56440952    -0.04200
C461        C  0.51886402  0.66995736  0.55670499    -0.00400
C462        C  0.51979292  0.71569249  0.55693439    -0.03000
C463        C  0.44665725  0.73908954  0.58061594     0.36300
C464        C  0.54203368  0.64715707  0.54822269     0.39900
C465        C  0.44669200  0.64646376  0.58068229     0.39000
C466        C  0.54503454  0.73950461  0.54899330     0.36000
C467        C  0.55352301  0.78610923  0.57874740     0.36700
C468        C  0.43485096  0.87861427  0.55167034     0.39900
N469        N  0.42767454  0.62792006  0.58730234    -0.38200
N470        N  0.42705257  0.75828069  0.58700281    -0.39700
N471        N  0.56050992  0.62941692  0.54138422    -0.37500
N472        N  0.56508099  0.75859350  0.54266518    -0.39900
N473        N  0.41180804  0.76717585  0.54614213    -0.39700
N474        N  0.41037034  0.89697141  0.54625358    -0.37300
N475        N  0.57363809  0.89715512  0.58548662    -0.38300
N476        N  0.57648985  0.76687773  0.58437870    -0.40000
C477        C  0.45348747  0.21582649  0.56778943    -0.04900
C478        C  0.48601903  0.23910832  0.56230481     0.09200
C479        C  0.52000031  0.21662369  0.55715569    -0.02300
C480        C  0.52134711  0.17086933  0.55739951    -0.00600
C481        C  0.48917607  0.14709060  0.56311833    -0.04200
C482        C  0.45476254  0.17016848  0.56816539     0.02800
C483        C  0.48499808  0.28759666  0.56221260     0.09700
C484        C  0.55420861  0.24088773  0.55181498     0.35600
C485        C  0.42062965  0.14747473  0.57394814     0.39000
C486        C  0.50079417  0.31091469  0.57121307    -0.04600
C487        C  0.50032414  0.35654363  0.57116885     0.02600
C488        C  0.48348496  0.37928001  0.56217282    -0.04200
C489        C  0.46703310  0.35595180  0.55320284    -0.00400
C490        C  0.46780875  0.31014816  0.55323571    -0.03000
C491        C  0.51706826  0.28779181  0.58060192     0.36300
C492        C  0.45064521  0.37898938  0.54381208     0.39900
C493        C  0.51661958  0.38010851  0.58050478     0.39000
C494        C  0.45071617  0.28594788  0.54409682     0.36000
C495        C  0.41918465  0.23921663  0.57332255     0.36700
C496        C  0.55503335  0.14868870  0.55134756     0.39900
N497        N  0.52972479  0.39866725  0.58796524    -0.38200
N498        N  0.52969693  0.26939190  0.58812929    -0.39700
N499        N  0.43767669  0.39717679  0.53628414    -0.37500
N500        N  0.43712514  0.26624824  0.53687486    -0.39900
N501        N  0.58156934  0.26039183  0.54764449    -0.39700
N502        N  0.58192022  0.13146440  0.54643101    -0.37300
N503        N  0.39308451  0.12960910  0.57848674    -0.38300
N504        N  0.39216745  0.25800044  0.57781354    -0.40000
C505        C  0.98249563  0.78698699  0.57016199    -0.04900
C506        C  0.00687924  0.76456199  0.56229582     0.09200
C507        C  0.03115539  0.78796527  0.55459319    -0.02300
C508        C  0.02996750  0.83368800  0.55450333    -0.00600
C509        C  0.00535809  0.85639682  0.56235741    -0.04200
C510        C  0.98181440  0.83272201  0.57022529     0.02800
C511        C  0.00602367  0.71610911  0.56187216     0.09700
C512        C  0.05722143  0.76457658  0.54674138     0.35600
C513        C  0.95726387  0.85539548  0.57849854     0.39000
C514        C  0.97793244  0.69476365  0.55459902    -0.04600
C515        C  0.97715974  0.64910518  0.55411035     0.02600
C516        C  0.00542127  0.62437532  0.56070984    -0.04200
C517        C  0.03405890  0.64601805  0.56787553    -0.00400
C518        C  0.03413732  0.69167250  0.56847477    -0.03000
C519        C  0.95071220  0.72004395  0.54738164     0.36300
C520        C  0.06296244  0.62145089  0.57482685     0.39900
C521        C  0.94825242  0.62782607  0.54650941     0.39000
C522        C  0.06377423  0.71373950  0.57575035     0.36000
C523        C  0.95807237  0.76280111  0.57818513     0.36700
C524        C  0.05199765  0.85699302  0.54590763     0.39900
N525        N  0.92505506  0.61103146  0.54045362    -0.38200
N526        N  0.92948465  0.74032792  0.54155806    -0.39700
N527        N  0.08615256  0.60192268  0.58033851    -0.37500
N528        N  0.08749759  0.73136743  0.58152389    -0.39900
N529        N  0.07793000  0.74534714  0.54058119    -0.39700
N530        N  0.06916034  0.87508758  0.53890577    -0.37300
N531        N  0.93762419  0.87353644  0.58506936    -0.38300
N532        N  0.93873742  0.74339499  0.58458653    -0.40000
C533        C  0.02276217  0.28613795  0.55161072    -0.04900
C534        C  0.99745975  0.26504436  0.55953408     0.09200
C535        C  0.97397702  0.28972442  0.56713212    -0.02300
C536        C  0.97597173  0.33535264  0.56687868    -0.00600
C537        C  0.00131345  0.35675221  0.55894453    -0.04200
C538        C  0.02447882  0.33185860  0.55124487     0.02800
C539        C  0.99677973  0.21661743  0.56013419     0.09700
C540        C  0.94820467  0.26794077  0.57532032     0.35600
C541        C  0.04871000  0.35301106  0.54267407     0.39000
C542        C  0.02713595  0.19488727  0.56668727    -0.04600
C543        C  0.02692763  0.14925553  0.56730651     0.02600
C544        C  0.99634425  0.12473069  0.56127811    -0.04200
C545        C  0.96603819  0.14685553  0.55462644    -0.00400
C546        C  0.96620441  0.19261934  0.55412293    -0.03000
C547        C  0.05891531  0.21984383  0.57272847     0.36300
C548        C  0.93607713  0.12274931  0.54784408     0.39900
C549        C  0.05803045  0.12781762  0.57431102     0.39000
C550        C  0.93543207  0.21532824  0.54727866     0.36000
C551        C  0.04721215  0.26048426  0.54388306     0.36700
C552        C  0.95290641  0.36020787  0.57503147     0.39900
N553        N  0.08300497  0.11080216  0.57985641    -0.38200
N554        N  0.08416299  0.24007972  0.57747696    -0.39700
N555        N  0.91229988  0.10367690  0.54237226    -0.37500
N556        N  0.91115511  0.23382464  0.54183566    -0.39900
N557        N  0.92773963  0.25046941  0.58184849    -0.39700
N558        N  0.93455069  0.38011558  0.58151646    -0.37300
N559        N  0.06793056  0.36936765  0.53573839    -0.38300
N560        N  0.06666364  0.23970619  0.53778358    -0.40000
C561        C  0.79693211  0.45119381  0.94570155    -0.04900
C562        C  0.77033219  0.47138640  0.93787943     0.09200
C563        C  0.78956669  0.49703864  0.92973291    -0.02300
C564        C  0.83505750  0.50143952  0.92916736    -0.00600
C565        C  0.86190809  0.48088003  0.93689006    -0.04200
C566        C  0.84255382  0.45610153  0.94525978     0.02800
C567        C  0.72175908  0.46906437  0.93865612     0.09700
C568        C  0.76214351  0.52035740  0.92217367     0.35600
C569        C  0.86930622  0.43788939  0.95379306     0.39000
C570        C  0.69954615  0.49819997  0.94546708    -0.04600
C571        C  0.65383801  0.49956500  0.94548980     0.02600
C572        C  0.62957870  0.47266125  0.93842144    -0.04200
C573        C  0.65194215  0.44225946  0.93184773    -0.00400
C574        C  0.69783620  0.44038803  0.93202558    -0.03000
C575        C  0.72402847  0.52766359  0.95229580     0.36300
C576        C  0.62808966  0.41388659  0.92459863     0.39900
C577        C  0.63185423  0.52793292  0.95308692     0.39000
C578        C  0.72068400  0.40946331  0.92525738     0.36000
C579        C  0.77702084  0.42672172  0.95441581     0.36700
C580        C  0.85414287  0.52693970  0.92053277     0.39900
N581        N  0.61438946  0.55037568  0.95919380    -0.38200
N582        N  0.74372093  0.55116186  0.95769850    -0.39700
N583        N  0.60924523  0.39113186  0.91881441    -0.37500
N584        N  0.73901141  0.38478206  0.91988873    -0.39900
N585        N  0.73995977  0.53917767  0.91626588    -0.39700
N586        N  0.86905531  0.54737437  0.91361832    -0.37300
N587        N  0.89048161  0.42377658  0.96068177    -0.38300
N588        N  0.76078535  0.40757930  0.96137992    -0.40000
C589        C  0.29602648  0.53300008  0.93010021    -0.04900
C590        C  0.26998700  0.50562129  0.93655242     0.09200
C591        C  0.28986851  0.47541171  0.94352614    -0.02300
C592        C  0.33545319  0.47175822  0.94388412    -0.00600
C593        C  0.36183434  0.49937651  0.93749222    -0.04200
C594        C  0.34172516  0.53020356  0.93062123     0.02800
C595        C  0.22149110  0.50690837  0.93565289     0.09700
C596        C  0.26314503  0.44774947  0.95030018     0.35600
C597        C  0.36785623  0.55746968  0.92359901     0.39000
C598        C  0.20048394  0.48394401  0.92727906    -0.04600
C599        C  0.15480832  0.48371183  0.92658797     0.02600
C600        C  0.12950186  0.50535987  0.93446686    -0.04200
C601        C  0.15070564  0.52884044  0.94279016    -0.00400
C602        C  0.19647761  0.52952740  0.94337274    -0.03000
C603        C  0.22601275  0.45953741  0.91951301     0.36300
C604        C  0.12551541  0.55121203  0.95098684     0.39900
C605        C  0.13422077  0.46270709  0.91743934     0.39000
C606        C  0.21798348  0.55248188  0.95211344     0.36000
C607        C  0.27564841  0.56354424  0.92276321     0.36700
C608        C  0.35492616  0.43933785  0.95086836     0.39900
N609        N  0.11881547  0.44628441  0.90995195    -0.38200
N610        N  0.24632634  0.43984027  0.91336329    -0.39700
N611        N  0.10541789  0.56918276  0.95750350    -0.37500
N612        N  0.23517194  0.57051722  0.95912220    -0.39900
N613        N  0.24177407  0.42593350  0.95574070    -0.39700
N614        N  0.37014748  0.41306114  0.95636356    -0.37300
N615        N  0.38869407  0.57899301  0.91795624    -0.38300
N616        N  0.25947044  0.58777358  0.91686655    -0.40000
C617        C  0.70433330  0.98462184  0.93485419    -0.04900
C618        C  0.72553071  0.01229223  0.94226160     0.09200
C619        C  0.70086742  0.03794283  0.94943719    -0.02300
C620        C  0.65512840  0.03569954  0.94923843    -0.00600
C621        C  0.63382951  0.00909406  0.94152903    -0.04200
C622        C  0.65875776  0.98324427  0.93442513     0.02800
C623        C  0.77393015  0.01540460  0.94205981     0.09700
C624        C  0.72271488  0.06751131  0.95678483     0.35600
C625        C  0.63768116  0.95638123  0.92633391     0.39000
C626        C  0.79458288  0.03782419  0.93353456    -0.04600
C627        C  0.84014257  0.03709039  0.93257982     0.02600
C628        C  0.86529853  0.01328606  0.94007684    -0.04200
C629        C  0.84465408  0.99261879  0.94891419    -0.00400
C630        C  0.79911192  0.99382255  0.94992199    -0.03000
C631        C  0.76851527  0.06111520  0.92566667     0.36300
C632        C  0.87048489  0.97153107  0.95721129     0.39900
C633        C  0.86086891  0.06023218  0.92376082     0.39000
C634        C  0.77808419  0.97290485  0.95904428     0.36000
C635        C  0.72967704  0.95848609  0.92740489     0.36700
C636        C  0.63016000  0.05950448  0.95723430     0.39900
N637        N  0.87705963  0.07904896  0.91673552    -0.38200
N638        N  0.74716111  0.07928766  0.91944522    -0.39700
N639        N  0.89129677  0.95504308  0.96382915    -0.37500
N640        N  0.76130023  0.95662751  0.96637454    -0.39900
N641        N  0.74043321  0.09117419  0.96256035    -0.39700
N642        N  0.61038278  0.07814779  0.96369409    -0.37300
N643        N  0.62108758  0.93493952  0.91985898    -0.38300
N644        N  0.75000072  0.93804595  0.92141609    -0.40000
C645        C  0.20145660  0.97227291  0.93249274    -0.04900
C646        C  0.22489285  0.00063443  0.93929326     0.09200
C647        C  0.20229595  0.02936838  0.94615167    -0.02300
C648        C  0.15656830  0.03089043  0.94595409    -0.00600
C649        C  0.13289769  0.00296315  0.93900149    -0.04200
C650        C  0.15570107  0.97380849  0.93222781     0.02800
C651        C  0.27351248  0.00116950  0.93911350     0.09700
C652        C  0.22632749  0.05653152  0.95365266     0.35600
C653        C  0.13221607  0.94683394  0.92458154     0.39000
C654        C  0.29570822  0.03251724  0.93290974    -0.04600
C655        C  0.34147441  0.03439899  0.93304218     0.02600
C656        C  0.36562398  0.00501118  0.93948515    -0.04200
C657        C  0.34300734  0.97422346  0.94589118    -0.00400
C658        C  0.29729200  0.97181198  0.94551890    -0.03000
C659        C  0.27121287  0.06278803  0.92632009     0.36300
C660        C  0.36642643  0.94649213  0.95336287     0.39900
C661        C  0.36341362  0.06630234  0.92637080     0.39000
C662        C  0.27449104  0.93913493  0.95176272     0.36000
C663        C  0.22450503  0.94094876  0.92589865     0.36700
C664        C  0.13407583  0.06077474  0.95309153     0.39900
N665        N  0.38061543  0.09198322  0.92106171    -0.38200
N666        N  0.25163489  0.08691108  0.92107774    -0.39700
N667        N  0.38499416  0.92464985  0.95940172    -0.37500
N668        N  0.25621296  0.91288435  0.95665846    -0.39900
N669        N  0.24560178  0.07779227  0.95969446    -0.39700
N670        N  0.11636071  0.08481652  0.95876052    -0.37300
N671        N  0.11328454  0.92568284  0.91844563    -0.38300
N672        N  0.24277622  0.91552194  0.92074723    -0.40000
C673        C  0.80381662  0.53277545  0.17905251    -0.04900
C674        C  0.78047417  0.50463680  0.18591289     0.09200
C675        C  0.80319242  0.47511883  0.19254072    -0.02300
C676        C  0.84897046  0.47352505  0.19228569    -0.00600
C677        C  0.87264797  0.50194441  0.18545563    -0.04200
C678        C  0.84956605  0.53099955  0.17868491     0.02800
C679        C  0.73181644  0.50545603  0.18608668     0.09700
C680        C  0.77916935  0.44683090  0.19977554     0.35600
C681        C  0.87265290  0.55759090  0.17089036     0.39000
C682        C  0.70792227  0.48554712  0.17767418    -0.04600
C683        C  0.66226318  0.48380204  0.17819379     0.02600
C684        C  0.64012292  0.50215674  0.18710425    -0.04200
C685        C  0.66388369  0.52300781  0.19538425    -0.00400
C686        C  0.70958471  0.52455500  0.19488368    -0.03000
C687        C  0.73038225  0.46638784  0.16852638     0.36300
C688        C  0.64144173  0.54125084  0.20465575     0.39900
C689        C  0.63793121  0.46359636  0.16946585     0.39000
C690        C  0.73394583  0.54515323  0.20352366     0.36000
C691        C  0.78061190  0.56408754  0.17248179     0.36700
C692        C  0.87141044  0.44295949  0.19923052     0.39900
N693        N  0.61840761  0.44747790  0.16254192    -0.38200
N694        N  0.74813844  0.45123557  0.16119185    -0.39700
N695        N  0.62365137  0.55564014  0.21208213    -0.37500
N696        N  0.75347933  0.56129113  0.21043783    -0.39900
N697        N  0.75964020  0.42481904  0.20559098    -0.39700
N698        N  0.88896950  0.41835658  0.20477258    -0.37300
N699        N  0.89104981  0.57846994  0.16460462    -0.38300
N700        N  0.76204774  0.58917264  0.16729009    -0.40000
C701        C  0.21305508  0.52618853  0.19018772    -0.04900
C702        C  0.23391362  0.49480122  0.18372188     0.09200
C703        C  0.20904012  0.46731990  0.17705968    -0.02300
C704        C  0.16334567  0.46997124  0.17715192    -0.00600
C705        C  0.14198065  0.50042528  0.18391505    -0.04200
C706        C  0.16732045  0.52911052  0.19029083     0.02800
C707        C  0.28227853  0.49075950  0.18394931     0.09700
C708        C  0.23076527  0.43648060  0.17003568     0.35600
C709        C  0.14655381  0.56066593  0.19728692     0.39000
C710        C  0.30257989  0.46422153  0.19177162    -0.04600
C711        C  0.34823820  0.46316348  0.19255734     0.02600
C712        C  0.37377310  0.48749013  0.18525653    -0.04200
C713        C  0.35339035  0.51186054  0.17700627    -0.00400
C714        C  0.30782090  0.51397187  0.17645535    -0.03000
C715        C  0.27634907  0.43789454  0.19897156     0.36300
C716        C  0.37946265  0.53400687  0.16891692     0.39900
C717        C  0.36882700  0.43878271  0.20119079     0.39000
C718        C  0.28715413  0.54011649  0.16817390     0.36000
C719        C  0.23896512  0.55543410  0.19675081     0.36700
C720        C  0.13856541  0.44193687  0.17002152     0.39900
N721        N  0.38539252  0.41964867  0.20810624    -0.38200
N722        N  0.25540788  0.41655078  0.20463066    -0.39700
N723        N  0.40060436  0.55132843  0.16249504    -0.37500
N724        N  0.27087490  0.56099376  0.16154243    -0.39900
N725        N  0.24831515  0.41214895  0.16441514    -0.39700
N726        N  0.11908548  0.41943328  0.16430961    -0.37300
N727        N  0.13009004  0.58583692  0.20288444    -0.38300
N728        N  0.25992418  0.57867172  0.20192996    -0.40000
C729        C  0.77472195  0.02594102  0.19788852    -0.04900
C730        C  0.75123058  0.00157805  0.19019572     0.09200
C731        C  0.77364336  0.97833579  0.18210822    -0.02300
C732        C  0.81935658  0.97939481  0.18171297    -0.00600
C733        C  0.84311647  0.00287746  0.18957776    -0.04200
C734        C  0.82050318  0.02626419  0.19766033     0.02800
C735        C  0.70272320  0.00065998  0.19052313     0.09700
C736        C  0.74943247  0.95319386  0.17421044     0.35600
C737        C  0.84429292  0.04936602  0.20600092     0.39000
C738        C  0.67862535  0.02737144  0.18348529    -0.04600
C739        C  0.63301192  0.02531802  0.18342713     0.02600
C740        C  0.61088233  0.99791732  0.19077101    -0.04200
C741        C  0.63510755  0.97130246  0.19788391    -0.00400
C742        C  0.68087819  0.97245790  0.19768620    -0.03000
C743        C  0.70081850  0.05731596  0.17632067     0.36300
C744        C  0.61327171  0.94316817  0.20555401     0.39900
C745        C  0.60896721  0.04971219  0.17535998     0.39000
C746        C  0.70563769  0.94461483  0.20486123     0.36000
C747        C  0.75156060  0.05072602  0.20602660     0.36700
C748        C  0.84181051  0.95757197  0.17295535     0.39900
N749        N  0.58967617  0.06867627  0.16887109    -0.38200
N750        N  0.71817650  0.08150837  0.17062627    -0.39700
N751        N  0.59649675  0.92044614  0.21171391    -0.37500
N752        N  0.72529193  0.92241509  0.21059606    -0.39900
N753        N  0.72989425  0.93317171  0.16796034    -0.39700
N754        N  0.85957076  0.94036311  0.16591325    -0.37300
N755        N  0.86326258  0.06758550  0.21269021    -0.38300
N756        N  0.73289161  0.07048659  0.21248157    -0.40000
C757        C  0.27522712  0.97601473  0.17957034    -0.04900
C758        C  0.25163266  0.00043524  0.18723376     0.09200
C759        C  0.27395039  0.02346758  0.19538305    -0.02300
C760        C  0.31952849  0.02192761  0.19592999    -0.00600
C761        C  0.34337222  0.99783155  0.18822785    -0.04200
C762        C  0.32096071  0.97451113  0.18008594     0.02800
C763        C  0.20309525  0.00047641  0.18711027     0.09700
C764        C  0.24978239  0.04837890  0.20332450     0.35600
C765        C  0.34480181  0.94934947  0.17214116     0.39000
C766        C  0.18007445  0.97524317  0.19471005    -0.04600
C767        C  0.13441781  0.97657069  0.19502168     0.02600
C768        C  0.11124278  0.00300667  0.18766150    -0.04200
C769        C  0.13448735  0.02919239  0.18023097    -0.00400
C770        C  0.18022332  0.02744521  0.17987295    -0.03000
C771        C  0.20367533  0.94843338  0.20235740     0.36300
C772        C  0.11157173  0.05814153  0.17296260     0.39900
C773        C  0.11150663  0.95266893  0.20338306     0.39000
C774        C  0.20395634  0.05360309  0.17210444     0.36000
C775        C  0.25232212  0.95227763  0.17118714     0.36700
C776        C  0.34164201  0.04329825  0.20481330     0.39900
N777        N  0.09333621  0.93392050  0.21011180    -0.38200
N778        N  0.22275315  0.92740036  0.20847279    -0.39700
N779        N  0.09351404  0.08172040  0.16724722    -0.37500
N780        N  0.22301060  0.07420478  0.16588574    -0.39900
N781        N  0.23046449  0.06803977  0.20967475    -0.39700
N782        N  0.35895220  0.06008981  0.21198988    -0.37300
N783        N  0.36355935  0.92907725  0.16580008    -0.38300
N784        N  0.23408411  0.93347223  0.16447202    -0.40000
C785        C  0.47456916  0.46631324  0.01279041    -0.04900
C786        C  0.50346694  0.49062986  0.00633594     0.09200
C787        C  0.53527450  0.51670700  0.01137589    -0.02300
C788        C  0.53813958  0.51853220  0.02278684    -0.00600
C789        C  0.50936780  0.49405425  0.02928047    -0.04200
C790        C  0.47793569  0.46736462  0.02420243     0.02800
C791        C  0.50062038  0.48843897  0.99420743     0.09700
C792        C  0.56483177  0.54208154  0.00479344     0.35600
C793        C  0.44832910  0.44153531  0.03067313     0.39000
C794        C  0.46851624  0.51218015  0.98861459    -0.04600
C795        C  0.46658291  0.51090193  0.97718592     0.02600
C796        C  0.49607298  0.48496733  0.97127793    -0.04200
C797        C  0.52722498  0.46010159  0.97689956    -0.00400
C798        C  0.52981092  0.46223803  0.98830635    -0.03000
C799        C  0.43720327  0.53757369  0.99466296     0.36300
C800        C  0.55748061  0.43322706  0.97090863     0.39900
C801        C  0.43352408  0.53546329  0.97150544     0.39000
C802        C  0.56267551  0.43753474  0.99399485     0.36000
C803        C  0.44066947  0.44096145  0.00764247     0.36700
C804        C  0.57177542  0.54450648  0.02784813     0.39900
N805        N  0.40723003  0.55498484  0.96694037    -0.38200
N806        N  0.41200899  0.55737827  0.99952820    -0.39700
N807        N  0.58136299  0.41176415  0.96606942    -0.37500
N808        N  0.58904507  0.41794732  0.99850839    -0.39900
N809        N  0.58845591  0.56236775  0.99956649    -0.39700
N810        N  0.59855903  0.56508640  0.03193821    -0.37300
N811        N  0.42478186  0.42060188  0.03576511    -0.38300
N812        N  0.41331915  0.42134810  0.00349074    -0.40000
C813        C  0.48924103  0.46898704  0.13624203    -0.04900
C814        C  0.51730895  0.49863344  0.13108093     0.09200
C815        C  0.54344623  0.52652493  0.13736576    -0.02300
C816        C  0.54128218  0.52507860  0.14876565    -0.00600
C817        C  0.51270416  0.49580057  0.15396400    -0.04200
C818        C  0.48665611  0.46776917  0.14764216     0.02800
C819        C  0.51804167  0.50170048  0.11899138     0.09700
C820        C  0.57227703  0.55708161  0.13207483     0.35600
C821        C  0.45562685  0.43909900  0.15282345     0.39000
C822        C  0.48454872  0.52383111  0.11351170    -0.04600
C823        C  0.48484182  0.52662722  0.10210520     0.02600
C824        C  0.51871059  0.50727253  0.09611591    -0.04200
C825        C  0.55276053  0.48595786  0.10163914    -0.00400
C826        C  0.55199308  0.48251871  0.11303236    -0.03000
C827        C  0.44909281  0.54252284  0.11966018     0.36300
C828        C  0.58919736  0.46855417  0.09560550     0.39900
C829        C  0.44938165  0.54794141  0.09652866     0.39000
C830        C  0.58525506  0.45798007  0.11863594     0.36000
C831        C  0.46260562  0.44010117  0.12977175     0.36700
C832        C  0.56910843  0.55326907  0.15513526     0.39900
N833        N  0.42103716  0.56487578  0.09208682    -0.38200
N834        N  0.42080727  0.55686798  0.12466132    -0.39700
N835        N  0.61840346  0.45506126  0.09078505    -0.37500
N836        N  0.61143461  0.43810378  0.12314575    -0.39900
N837        N  0.59532896  0.58142756  0.12786829    -0.39700
N838        N  0.59112724  0.57571414  0.16026255    -0.37300
N839        N  0.43075349  0.41641869  0.15696553    -0.38300
N840        N  0.44131541  0.41718962  0.12458638    -0.40000
C841        C  0.47316999  0.03217991  0.99064437    -0.04900
C842        C  0.50748252  0.01100589  0.99601295     0.09200
C843        C  0.53961036  0.98931259  0.98997098    -0.02300
C844        C  0.53707087  0.98822785  0.97857000    -0.00600
C845        C  0.50219031  0.00873449  0.97317609    -0.04200
C846        C  0.47028714  0.03074955  0.97925796     0.02800
C847        C  0.50825340  0.00948677  0.00808970     0.09700
C848        C  0.57522189  0.96809852  0.99552660     0.35600
C849        C  0.43343431  0.05023049  0.97382333     0.39000
C850        C  0.48718298  0.97532824  0.01353405    -0.04600
C851        C  0.48624594  0.97433495  0.02494463     0.02600
C852        C  0.50695397  0.00748357  0.03101975    -0.04200
C853        C  0.52884423  0.04126484  0.02546827    -0.00400
C854        C  0.52886478  0.04252548  0.01405447    -0.03000
C855        C  0.46559468  0.94166050  0.00731480     0.36300
C856        C  0.55256954  0.07419066  0.03144027     0.39900
C857        C  0.46258870  0.93982255  0.03033450     0.39000
C858        C  0.54953229  0.07824853  0.00841765     0.36000
C859        C  0.44070178  0.05516048  0.99690725     0.36700
C860        C  0.57091572  0.96678993  0.97240559     0.39900
N861        N  0.44372627  0.91220448  0.03458217    -0.38200
N862        N  0.44836529  0.91502467  0.00230494    -0.39700
N863        N  0.57148010  0.10035450  0.03622397    -0.37500
N864        N  0.56576708  0.10698086  0.00396609    -0.39900
N865        N  0.60361495  0.95122506  0.99996258    -0.39700
N866        N  0.59801913  0.94967620  0.96754213    -0.37300
N867        N  0.40393890  0.06541780  0.96945596    -0.38300
N868        N  0.41508610  0.07356792  0.00197103    -0.40000
C869        C  0.45787300  0.01525621  0.13842920    -0.04900
C870        C  0.49614849  0.99928345  0.13356774     0.09200
C871        C  0.52961426  0.98280549  0.14019527    -0.02300
C872        C  0.52450546  0.98152619  0.15156602    -0.00600
C873        C  0.48665019  0.99844911  0.15643967    -0.04200
C874        C  0.45337450  0.01541522  0.14982303     0.02800
C875        C  0.50093953  0.00017431  0.12144661     0.09700
C876        C  0.56971397  0.96798518  0.13531545     0.35600
C877        C  0.41383373  0.03164219  0.15472895     0.39000
C878        C  0.51165461  0.03911447  0.11613480    -0.04600
C879        C  0.51221989  0.04134723  0.10468502     0.02600
C880        C  0.50330125  0.00384838  0.09829901    -0.04200
C881        C  0.49400799  0.96426633  0.10381566    -0.00400
C882        C  0.49289254  0.96266534  0.11526170    -0.03000
C883        C  0.52305802  0.07688347  0.12255928     0.36300
C884        C  0.48468115  0.92473257  0.09786141     0.39900
C885        C  0.52237157  0.08266967  0.09967723     0.39000
C886        C  0.48352504  0.92207316  0.12073272     0.36000
C887        C  0.42296975  0.03120115  0.13163439     0.36700
C888        C  0.55846804  0.96313908  0.15828269     0.39900
N889        N  0.53026229  0.11599230  0.09585433    -0.38200
N890        N  0.53254033  0.10676789  0.12770499    -0.39700
N891        N  0.47756162  0.89315919  0.09312039    -0.37500
N892        N  0.47639670  0.88956382  0.12504608    -0.39900
N893        N  0.60188154  0.95641087  0.13147324    -0.39700
N894        N  0.58531229  0.94817800  0.16365151    -0.37300
N895        N  0.38226504  0.04445515  0.15864038    -0.38300
N896        N  0.39532112  0.04377739  0.12614174    -0.40000
C897        C  0.81135282  0.46900590  0.06823086    -0.04900
C898        C  0.78839451  0.49781581  0.06146866     0.09200
C899        C  0.81122493  0.52460284  0.05419449    -0.02300
C900        C  0.85686830  0.52332647  0.05380242    -0.00600
C901        C  0.88018050  0.49417591  0.06049246    -0.04200
C902        C  0.85705838  0.46691192  0.06770704     0.02800
C903        C  0.73993259  0.49959586  0.06179237     0.09700
C904        C  0.78744465  0.55329217  0.04702317     0.35600
C905        C  0.88018288  0.43805305  0.07497174     0.39000
C906        C  0.71855186  0.52647573  0.06934692    -0.04600
C907        C  0.67283864  0.52950766  0.06928541     0.02600
C908        C  0.64826631  0.50429160  0.06191324    -0.04200
C909        C  0.66990969  0.47819140  0.05421570    -0.00400
C910        C  0.71552260  0.47610455  0.05411894    -0.03000
C911        C  0.74378934  0.55086879  0.07718453     0.36300
C912        C  0.64520471  0.45483901  0.04607511     0.39900
C913        C  0.65128487  0.55827097  0.07686852     0.39000
C914        C  0.73757316  0.45024268  0.04599954     0.36000
C915        C  0.78782303  0.44173119  0.07578896     0.36700
C916        C  0.87962293  0.55203786  0.04642119     0.39900
N917        N  0.63430308  0.58159584  0.08285947    -0.38200
N918        N  0.76410070  0.57003875  0.08345022    -0.39700
N919        N  0.62525251  0.43644896  0.03959640    -0.37500
N920        N  0.75527780  0.42992048  0.03948912    -0.39900
N921        N  0.76828380  0.57583691  0.04126982    -0.39700
N922        N  0.89771575  0.57531109  0.04062447    -0.37300
N923        N  0.89847989  0.41505735  0.08079183    -0.38300
N924        N  0.76913043  0.42007932  0.08185297    -0.40000
C925        C  0.31204569  0.48499452  0.07204384    -0.04900
C926        C  0.28915317  0.50149490  0.06303600     0.09200
C927        C  0.31227169  0.51818998  0.05409041    -0.02300
C928        C  0.35799148  0.51856078  0.05415819    -0.00600
C929        C  0.38090551  0.50091283  0.06303779    -0.04200
C930        C  0.35779499  0.48380641  0.07193996     0.02800
C931        C  0.24063232  0.49958955  0.06269728     0.09700
C932        C  0.28881886  0.53451942  0.04475196     0.35600
C933        C  0.38121021  0.46552253  0.08105443     0.39000
C934        C  0.21556216  0.53138809  0.06796805    -0.04600
C935        C  0.16982326  0.52959496  0.06750509     0.02600
C936        C  0.14870345  0.49731286  0.06120511    -0.04200
C937        C  0.17426223  0.46578453  0.05582177    -0.00400
C938        C  0.21984633  0.46629458  0.05684046    -0.03000
C939        C  0.23707662  0.56598431  0.07386347     0.36300
C940        C  0.15407060  0.43346638  0.04892707     0.39900
C941        C  0.14472100  0.55973118  0.07399452     0.39000
C942        C  0.24572385  0.43227220  0.05193882     0.36000
C943        C  0.28846492  0.46943159  0.08143277     0.36700
C944        C  0.38142961  0.53593130  0.04492884     0.39900
N945        N  0.12471905  0.58344198  0.07926095    -0.38200
N946        N  0.25449982  0.59352550  0.07851324    -0.39700
N947        N  0.13816028  0.40772541  0.04338096    -0.37500
N948        N  0.26672842  0.40516232  0.04815440    -0.39900
N949        N  0.26997981  0.54721099  0.03729579    -0.39700
N950        N  0.40002550  0.54986668  0.03756780    -0.37300
N951        N  0.40017961  0.45079396  0.08825374    -0.38300
N952        N  0.26972084  0.45742365  0.08897692    -0.40000
C953        C  0.97939100  0.46162488  0.00991128    -0.04900
C954        C  0.00905034  0.48588085  0.00365250     0.09200
C955        C  0.04013498  0.51217207  0.00889574    -0.02300
C956        C  0.04152046  0.51435400  0.02031586    -0.00600
C957        C  0.01195575  0.49000436  0.02661547    -0.04200
C958        C  0.98085047  0.46357498  0.02133820     0.02800
C959        C  0.00615484  0.48555663  0.99152149     0.09700
C960        C  0.07054515  0.53736812  0.00250643     0.35600
C961        C  0.94916382  0.43960068  0.02764459     0.39000
C962        C  0.97367027  0.50994953  0.98628644    -0.04600
C963        C  0.97175995  0.51149177  0.97487854     0.02600
C964        C  0.00173540  0.48761836  0.96855401    -0.04200
C965        C  0.03397360  0.46268311  0.97382757    -0.00400
C966        C  0.03626675  0.46188240  0.98526132    -0.03000
C967        C  0.94196560  0.53341665  0.99269662     0.36300
C968        C  0.06603653  0.43928790  0.96751319     0.39900
C969        C  0.93843748  0.53745844  0.96970873     0.39000
C970        C  0.06985899  0.43692858  0.99061537     0.36000
C971        C  0.94685388  0.43521848  0.00454072     0.36700
C972        C  0.07420572  0.54093221  0.02556046     0.39900
N973        N  0.91199846  0.55853257  0.96565751    -0.38200
N974        N  0.91647415  0.55167609  0.99783237    -0.39700
N975        N  0.09160030  0.42068551  0.96247121    -0.37500
N976        N  0.09679410  0.41719069  0.99487321    -0.39900
N977        N  0.09493766  0.55738450  0.99743766    -0.39700
N978        N  0.10034729  0.56217697  0.02969338    -0.37300
N979        N  0.92385979  0.42054336  0.03266855    -0.38300
N980        N  0.92078637  0.41450281  0.00021364    -0.40000
C981        C  0.97725390  0.51897533  0.11053771    -0.04900
C982        C  0.00917299  0.49673241  0.11654925     0.09200
C983        C  0.04207391  0.47374428  0.11105281    -0.02300
C984        C  0.04340867  0.47350999  0.09961841    -0.00600
C985        C  0.01207499  0.49669401  0.09359090    -0.04200
C986        C  0.97880389  0.51920498  0.09910741     0.02800
C987        C  0.00817282  0.49762381  0.12869443     0.09700
C988        C  0.07430917  0.44996979  0.11720554     0.35600
C989        C  0.94508011  0.54119971  0.09303356     0.39000
C990        C  0.97791284  0.47204158  0.13443600    -0.04600
C991        C  0.97699275  0.47296767  0.14586472     0.02600
C992        C  0.00665158  0.49919663  0.15164844    -0.04200
C993        C  0.03688147  0.52485067  0.14589090    -0.00400
C994        C  0.03715390  0.52455605  0.13446550    -0.03000
C995        C  0.94696243  0.44554497  0.12855359     0.36300
C996        C  0.06872566  0.55057091  0.15172006     0.39900
C997        C  0.94439549  0.44812567  0.15164910     0.39000
C998        C  0.06657439  0.55288084  0.12863486     0.36000
C999        C  0.94237147  0.54101670  0.11617255     0.36700
C1000       C  0.07751407  0.45001683  0.09404091     0.39900
N1001       N  0.91834430  0.42845885  0.15627164    -0.38200
N1002       N  0.92191647  0.42482099  0.12386702    -0.39700
N1003       N  0.09413081  0.57087933  0.15640343    -0.37500
N1004       N  0.08988160  0.57584923  0.12405058    -0.39900
N1005       N  0.09994837  0.43109422  0.12215292    -0.39700
N1006       N  0.10447550  0.43127236  0.08951051    -0.37300
N1007       N  0.91805898  0.55866117  0.08822013    -0.38300
N1008       N  0.91442997  0.55800732  0.12075579    -0.40000
C1009       C  0.70810719  0.03637171  0.07150761    -0.04900
C1010       C  0.73053888  0.01526277  0.06305345     0.09200
C1011       C  0.70692180  0.99449420  0.05474175    -0.02300
C1012       C  0.66117529  0.99364058  0.05505695    -0.00600
C1013       C  0.63864748  0.01401427  0.06365382    -0.04200
C1014       C  0.66234413  0.03606471  0.07176425     0.02800
C1015       C  0.77911690  0.01350420  0.06307816     0.09700
C1016       C  0.72992979  0.97358197  0.04591635     0.35600
C1017       C  0.63973961  0.05716093  0.08061117     0.39000
C1018       C  0.80086792  0.98443596  0.07003210    -0.04600
C1019       C  0.84653687  0.98244059  0.07005093     0.02600
C1020       C  0.87083229  0.00784640  0.06270201    -0.04200
C1021       C  0.84892168  0.03624123  0.05555062    -0.00400
C1022       C  0.80335969  0.04019098  0.05603924    -0.03000
C1023       C  0.77609217  0.95686216  0.07725987     0.36300
C1024       C  0.87295123  0.06000334  0.04736904     0.39900
C1025       C  0.86865720  0.95570317  0.07798989     0.39000
C1026       C  0.78133687  0.07259895  0.04954678     0.36000
C1027       C  0.73232104  0.05781319  0.08004601     0.36700
C1028       C  0.63738930  0.97250120  0.04638389     0.39900
N1029       N  0.88681146  0.93490057  0.08432700    -0.38200
N1030       N  0.75617492  0.93500160  0.08302438    -0.39700
N1031       N  0.89202743  0.07847731  0.04074569    -0.37500
N1032       N  0.76362401  0.09882439  0.04452705    -0.39900
N1033       N  0.74851219  0.95717782  0.03888430    -0.39700
N1034       N  0.61880352  0.95560650  0.03941394    -0.37300
N1035       N  0.62185848  0.07404783  0.08768174    -0.38300
N1036       N  0.75176024  0.07462177  0.08687779    -0.40000
C1037       C  0.20818209  0.02397474  0.07038882    -0.04900
C1038       C  0.23019178  0.99638716  0.06312928     0.09200
C1039       C  0.20637213  0.96937988  0.05609356    -0.02300
C1040       C  0.16063367  0.97003533  0.05626527    -0.00600
C1041       C  0.13837365  0.99717801  0.06366753    -0.04200
C1042       C  0.16249320  0.02403437  0.07076232     0.02800
C1043       C  0.27867900  0.99621600  0.06285706     0.09700
C1044       C  0.22920262  0.94129155  0.04858830     0.35600
C1045       C  0.14041371  0.05078685  0.07870882     0.39000
C1046       C  0.30206000  0.96369519  0.06833553    -0.04600
C1047       C  0.34780796  0.96487562  0.06858246     0.02600
C1048       C  0.37067337  0.99898660  0.06339009    -0.04200
C1049       C  0.34682662  0.03071531  0.05756346    -0.00400
C1050       C  0.30113382  0.02910797  0.05727989    -0.03000
C1051       C  0.27879176  0.92903487  0.07376643     0.36300
C1052       C  0.36898829  0.06455420  0.05155557     0.39900
C1053       C  0.37098137  0.93138172  0.07444687     0.39000
C1054       C  0.27695636  0.06107811  0.05111960     0.36000
C1055       C  0.23281765  0.05239200  0.07746118     0.36700
C1056       C  0.13672439  0.94409807  0.04847733     0.39900
N1057       N  0.38942617  0.90449630  0.07906857    -0.38200
N1058       N  0.26013094  0.90133149  0.07803023    -0.39700
N1059       N  0.38638200  0.09169649  0.04676098    -0.37500
N1060       N  0.25761771  0.08638551  0.04618108    -0.39900
N1061       N  0.24768849  0.91887366  0.04266574    -0.39700
N1062       N  0.11793043  0.92348498  0.04220372    -0.37300
N1063       N  0.12267967  0.07193820  0.08505305    -0.38300
N1064       N  0.25274547  0.07514293  0.08301360    -0.40000
C1065       C  0.96655276  0.98645138  0.01345417    -0.04900
C1066       C  0.00087600  0.00492324  0.00746377     0.09200
C1067       C  0.03712720  0.02248436  0.01290093    -0.02300
C1068       C  0.03952572  0.02069679  0.02428399    -0.00600
C1069       C  0.00466847  0.00331597  0.03027176    -0.04200
C1070       C  0.96796939  0.98661059  0.02484985     0.02800
C1071       C  0.99925172  0.00534841  0.99538433     0.09700
C1072       C  0.07181740  0.04256096  0.00674843     0.35600
C1073       C  0.93099163  0.97104552  0.03101377     0.39000
C1074       C  0.98631563  0.04301584  0.98984162    -0.04600
C1075       C  0.98496691  0.04355432  0.97841104     0.02600
C1076       C  0.99826817  0.00661879  0.97235812    -0.04200
C1077       C  0.01116409  0.96867338  0.97811221    -0.00400
C1078       C  0.01116615  0.96814077  0.98953083    -0.03000
C1079       C  0.97441396  0.08131387  0.99600258     0.36300
C1080       C  0.02514493  0.92980402  0.97247427     0.39900
C1081       C  0.96806643  0.08177341  0.97303262     0.39000
C1082       C  0.02377476  0.92918996  0.99534309     0.36000
C1083       C  0.92985828  0.96714413  0.00789095     0.36700
C1084       C  0.07850111  0.03511767  0.02980855     0.39900
N1085       N  0.95428651  0.11226149  0.96880558    -0.38200
N1086       N  0.96532300  0.11167962  0.00100958    -0.39700
N1087       N  0.03611525  0.89848619  0.96810850    -0.37500
N1088       N  0.03357881  0.89816036  0.99999535    -0.39900
N1089       N  0.09915591  0.05900093  0.00181917    -0.39700
N1090       N  0.10978538  0.04612718  0.03420094    -0.37300
N1091       N  0.90142038  0.95906271  0.03594759    -0.38300
N1092       N  0.90070449  0.95128941  0.00351484    -0.40000
C1093       C  0.97093076  0.96163024  0.13745787    -0.04900
C1094       C  0.98453005  0.99889751  0.13179543     0.09200
C1095       C  0.99382412  0.03710902  0.13758993    -0.02300
C1096       C  0.98830047  0.03874839  0.14893036    -0.00600
C1097       C  0.97621179  0.00093381  0.15482876    -0.04200
C1098       C  0.96755829  0.96219393  0.14888447     0.02800
C1099       C  0.98855128  0.99836312  0.11967264     0.09700
C1100       C  0.01022760  0.07474316  0.13183105     0.35600
C1101       C  0.95487651  0.92246565  0.15434233     0.39000
C1102       C  0.95803328  0.02075309  0.11322638    -0.04600
C1103       C  0.96225956  0.02125827  0.10185235     0.02600
C1104       C  0.99715865  0.99955367  0.09681311    -0.04200
C1105       C  0.02749154  0.97681934  0.10323204    -0.00400
C1106       C  0.02343282  0.97658188  0.11462984    -0.03000
C1107       C  0.92240606  0.04369730  0.11832564     0.36300
C1108       C  0.06353357  0.95460443  0.09811214     0.39900
C1109       C  0.92971600  0.04282371  0.09528463     0.39000
C1110       C  0.05579182  0.95492101  0.12121632     0.36000
C1111       C  0.96047486  0.92244023  0.13147154     0.36700
C1112       C  0.99548904  0.07988574  0.15435376     0.39900
N1113       N  0.90376669  0.05975738  0.09000941    -0.38200
N1114       N  0.89427084  0.06239140  0.12238594    -0.39700
N1115       N  0.09217011  0.93688422  0.09399285    -0.37500
N1116       N  0.08156533  0.93774719  0.12649514    -0.39900
N1117       N  0.02352443  0.10458715  0.12723254    -0.39700
N1118       N  0.00073345  0.11291606  0.15860010    -0.37300
N1119       N  0.94511866  0.89051736  0.15860888    -0.38300
N1120       N  0.95224157  0.89115929  0.12672171    -0.40000
C1121       C  0.52726549  0.52341802  0.51212974    -0.04900
C1122       C  0.48879947  0.51590630  0.50632140     0.09200
C1123       C  0.44931973  0.51139414  0.51191683    -0.02300
C1124       C  0.44839924  0.51232890  0.52335629    -0.00600
C1125       C  0.48739671  0.51837764  0.52939573    -0.04200
C1126       C  0.52676201  0.52510376  0.52355194     0.02800
C1127       C  0.48990098  0.51292511  0.49422899     0.09700
C1128       C  0.40944919  0.50570938  0.50580938     0.35600
C1129       C  0.56722724  0.53448271  0.52909108     0.39000
C1130       C  0.50260944  0.47395703  0.48914022    -0.04600
C1131       C  0.50398273  0.47128983  0.47773699     0.02600
C1132       C  0.49144971  0.50718772  0.47138309    -0.04200
C1133       C  0.47817615  0.54595909  0.47648150    -0.00400
C1134       C  0.47863281  0.54918836  0.48787397    -0.03000
C1135       C  0.51471201  0.43681044  0.49567838     0.36300
C1136       C  0.46454545  0.58274013  0.46999984     0.39900
C1137       C  0.51755675  0.43138465  0.47251851     0.39000
C1138       C  0.46905035  0.59020666  0.49309951     0.36000
C1139       C  0.56755141  0.52969976  0.50624008     0.36700
C1140       C  0.40692148  0.50633385  0.52871049     0.39900
N1141       N  0.52843676  0.39964003  0.46833771    -0.38200
N1142       N  0.52450382  0.40733289  0.50092048    -0.39700
N1143       N  0.45333209  0.61199492  0.46485950    -0.37500
N1144       N  0.46204297  0.62295849  0.49731165    -0.39900
N1145       N  0.37774922  0.50151961  0.50090714    -0.39700
N1146       N  0.37364210  0.50161472  0.53287671    -0.37300
N1147       N  0.59970634  0.54192057  0.53340541    -0.38300
N1148       N  0.59948950  0.53465187  0.50148590    -0.40000
C1149       C  0.46950862  0.79680708  0.44459897    -0.04900
C1150       C  0.49656367  0.77581799  0.43701907     0.09200
C1151       C  0.52242682  0.80079914  0.42995888    -0.02300
C1152       C  0.52238347  0.84645777  0.43073284    -0.00600
C1153       C  0.49726304  0.86748262  0.43876407    -0.04200
C1154       C  0.47007549  0.84242199  0.44554409     0.02800
C1155       C  0.49828282  0.72727268  0.43668783     0.09700
C1156       C  0.54888347  0.77943095  0.42184908     0.35600
C1157       C  0.44336346  0.86331051  0.45367709     0.39000
C1158       C  0.47148153  0.70386454  0.42950705    -0.04600
C1159       C  0.47142869  0.65808945  0.42965129     0.02600
C1160       C  0.49783399  0.63528159  0.43710029    -0.04200
C1161       C  0.52523801  0.65894183  0.44417733    -0.00400
C1162       C  0.52579330  0.70468768  0.44385838    -0.03000
C1163       C  0.44420813  0.72707840  0.42190472     0.36300
C1164       C  0.55178088  0.63644085  0.45208870     0.39900
C1165       C  0.44528799  0.63448237  0.42184995     0.39000
C1166       C  0.55497548  0.72876192  0.45085772     0.36000
C1167       C  0.44083817  0.77121492  0.45137888     0.36700
C1168       C  0.54651710  0.87198020  0.42290181     0.39900
N1169       N  0.42466375  0.61547187  0.41561974    -0.38200
N1170       N  0.42264072  0.74571735  0.41581854    -0.39700
N1171       N  0.57283459  0.61852733  0.45842194    -0.43900
N1172       N  0.57845552  0.74808148  0.45635513    -0.39900
N1173       N  0.56992450  0.76244873  0.41535774    -0.39700
N1174       N  0.56524000  0.89264044  0.41663026    -0.37300
N1175       N  0.42191917  0.87971508  0.46017786    -0.38300
N1176       N  0.41782544  0.75064190  0.45670408    -0.40000
C1177       C  0.51902058  0.20603208  0.44733181    -0.04900
C1178       C  0.50206569  0.22667073  0.43802045     0.09200
C1179       C  0.48839642  0.20115538  0.42913187    -0.02300
C1180       C  0.49177542  0.15554792  0.42956240    -0.00600
C1181       C  0.50691950  0.13495689  0.43906237    -0.04200
C1182       C  0.52058409  0.16036148  0.44793888     0.02800
C1183       C  0.49830420  0.27524848  0.43770704     0.09700
C1184       C  0.46996531  0.22177543  0.41962706     0.35600
C1185       C  0.53432460  0.13953995  0.45789093     0.39000
C1186       C  0.52572681  0.29996004  0.43093166    -0.04600
C1187       C  0.52312456  0.34560498  0.43093847     0.02600
C1188       C  0.49489372  0.36721126  0.43818243    -0.04200
C1189       C  0.46744267  0.34251281  0.44497233    -0.00400
C1190       C  0.46837125  0.29676550  0.44452247    -0.03000
C1191       C  0.55730621  0.27846516  0.42408191     0.36300
C1192       C  0.43956153  0.36400597  0.45276697     0.39900
C1193       C  0.54840397  0.37038035  0.42317836     0.39000
C1194       C  0.43875528  0.27162048  0.45115635     0.36000
C1195       C  0.53442173  0.23203890  0.45634813     0.36700
C1196       C  0.48043846  0.12972193  0.42013645     0.39900
N1197       N  0.56803358  0.39053493  0.41697616    -0.38200
N1198       N  0.58254386  0.26143109  0.41861364    -0.39700
N1199       N  0.41758486  0.38111982  0.45904193    -0.37500
N1200       N  0.41533128  0.25132064  0.45643767    -0.39900
N1201       N  0.45525155  0.23817834  0.41204498    -0.39700
N1202       N  0.47179810  0.10915069  0.41259658    -0.37300
N1203       N  0.54486857  0.12313512  0.46589204    -0.38300
N1204       N  0.54637934  0.25320758  0.46348968    -0.40000
C1205       C  0.45578916  0.99476950  0.49072648    -0.04900
C1206       C  0.49211838  0.00765894  0.49677303     0.09200
C1207       C  0.53079827  0.01917849  0.49147235    -0.02300
C1208       C  0.53384142  0.01623043  0.48008708    -0.00600
C1209       C  0.49720624  0.00338570  0.47380822    -0.04200
C1210       C  0.45789155  0.99307269  0.47932962     0.02800
C1211       C  0.48990151  0.00796161  0.50883071     0.09700
C1212       C  0.56720386  0.03508274  0.49780602     0.35600
C1213       C  0.41906527  0.98043080  0.47348261     0.39000
C1214       C  0.50076327  0.97022879  0.51467057    -0.04600
C1215       C  0.50059555  0.97083205  0.52606739     0.02600
C1216       C  0.48851008  0.00889222  0.53162486    -0.04200
C1217       C  0.47514447  0.04585634  0.52578565    -0.00400
C1218       C  0.47599825  0.04541760  0.51437894    -0.03000
C1219       C  0.51073537  0.93049275  0.50889618     0.36300
C1220       C  0.46081507  0.08435256  0.53152383     0.39900
C1221       C  0.51182818  0.93201279  0.53208088     0.39000
C1222       C  0.46168727  0.08301955  0.50830582     0.36000
C1223       C  0.41596809  0.98352871  0.49635737     0.36700
C1224       C  0.57479898  0.02735397  0.47499706     0.39900
N1225       N  0.52071489  0.90098331  0.53684123    -0.38200
N1226       N  0.51804556  0.89880088  0.50423524    -0.39700
N1227       N  0.44918160  0.11494332  0.53609793    -0.37500
N1228       N  0.44990996  0.11276572  0.50342811    -0.39900
N1229       N  0.59587851  0.04823563  0.50288533    -0.39700
N1230       N  0.60762831  0.03608689  0.47101805    -0.37300
N1231       N  0.38763718  0.97080703  0.46895914    -0.38300
N1232       N  0.38449417  0.97474803  0.50095758    -0.40000
C1233       C  0.96213001  0.51101951  0.50870351    -0.04900
C1234       C  0.99859838  0.49888544  0.50259146     0.09200
C1235       C  0.03658891  0.48532656  0.50791156    -0.02300
C1236       C  0.03863691  0.48485722  0.51934661    -0.00600
C1237       C  0.00138123  0.49545437  0.52565583    -0.04200
C1238       C  0.96280503  0.50800131  0.52010653     0.02800
C1239       C  0.99685949  0.50029486  0.49048003     0.09700
C1240       C  0.07349587  0.47116270  0.50152525     0.35600
C1241       C  0.92311693  0.51786591  0.52592073     0.39000
C1242       C  0.01275582  0.53681690  0.48487186    -0.04600
C1243       C  0.01209232  0.53773208  0.47344438     0.02600
C1244       C  0.99426840  0.50262954  0.46757354    -0.04200
C1245       C  0.97681233  0.46681139  0.47321850    -0.00400
C1246       C  0.97887206  0.46530604  0.48463461    -0.03000
C1247       C  0.02924992  0.57364467  0.49092529     0.36300
C1248       C  0.95738811  0.43113890  0.46727728     0.39900
C1249       C  0.02880466  0.57528546  0.46772958     0.39000
C1250       C  0.96309322  0.42750254  0.49041000     0.36000
C1251       C  0.92379660  0.52715664  0.50318964     0.36700
C1252       C  0.07940948  0.47312826  0.52443784     0.39900
N1253       N  0.04211457  0.60530144  0.46319828    -0.38200
N1254       N  0.04207195  0.60295756  0.49581835    -0.39700
N1255       N  0.94162294  0.40277155  0.46257149    -0.37500
N1256       N  0.95075627  0.39735181  0.49505093    -0.39900
N1257       N  0.10263338  0.45953444  0.49639788    -0.39700
N1258       N  0.11214766  0.46429307  0.52844830    -0.37300
N1259       N  0.89097931  0.52517191  0.53039060    -0.38300
N1260       N  0.89335321  0.54038624  0.49883286    -0.40000
C1261       C  0.03183916  0.79902834  0.44246739    -0.04900
C1262       C  0.00347578  0.77750047  0.43532061     0.09200
C1263       C  0.97536021  0.80165150  0.42867967    -0.02300
C1264       C  0.97541173  0.84731770  0.42918899    -0.00600
C1265       C  0.00310113  0.86931402  0.43656114    -0.04200
C1266       C  0.03157514  0.84467143  0.44313866     0.02800
C1267       C  0.00239343  0.72913553  0.43501139     0.09700
C1268       C  0.94608081  0.77921011  0.42136502     0.35600
C1269       C  0.05973018  0.86567603  0.45093105     0.39000
C1270       C  0.97173578  0.70642431  0.44129580    -0.04600
C1271       C  0.97126640  0.66076997  0.44127964     0.02600
C1272       C  0.00089807  0.63745707  0.43474149    -0.04200
C1273       C  0.03135366  0.66044670  0.42835267    -0.00400
C1274       C  0.03202503  0.70612841  0.42849989    -0.03000
C1275       C  0.94030912  0.73024212  0.44770153     0.36300
C1276       C  0.06132528  0.63729543  0.42137444     0.39900
C1277       C  0.94133257  0.63800456  0.44835173     0.39000
C1278       C  0.06261213  0.72963209  0.42177094     0.36000
C1279       C  0.06077940  0.77392499  0.44929603     0.36700
C1280       C  0.94779859  0.87141163  0.42182750     0.39900
N1281       N  0.91753842  0.62006362  0.45404713    -0.38200
N1282       N  0.91500576  0.74926404  0.45272259    -0.39700
N1283       N  0.08528175  0.61882627  0.41583624    -0.37500
N1284       N  0.08688774  0.74831434  0.41636020    -0.39900
N1285       N  0.92266672  0.76113740  0.41559766    -0.39700
N1286       N  0.92572879  0.89033745  0.41591002    -0.37300
N1287       N  0.08260269  0.88138823  0.45722770    -0.38300
N1288       N  0.08380720  0.75388614  0.45473582    -0.40000
C1289       C  0.97015817  0.20726051  0.44413632    -0.04900
C1290       C  0.99287935  0.22951931  0.43593410     0.09200
C1291       C  0.01684478  0.20592576  0.42820125    -0.02300
C1292       C  0.01905009  0.16028720  0.42881889    -0.00600
C1293       C  0.99609862  0.13774072  0.43700685    -0.04200
C1294       C  0.97161360  0.16154807  0.44466430     0.02800
C1295       C  0.99268926  0.27804063  0.43558132     0.09700
C1296       C  0.03880274  0.22888356  0.41952673     0.35600
C1297       C  0.94964894  0.13925126  0.45343080     0.39000
C1298       C  0.02533589  0.30164259  0.44097752    -0.04600
C1299       C  0.02621450  0.34726684  0.44040334     0.02600
C1300       C  0.99441071  0.36990633  0.43433219    -0.04200
C1301       C  0.96158424  0.34594810  0.42892766    -0.00400
C1302       C  0.96056814  0.30027919  0.42967037    -0.03000
C1303       C  0.05785976  0.27883107  0.44726269     0.36300
C1304       C  0.92959065  0.36781354  0.42226176     0.39900
C1305       C  0.05936238  0.37076820  0.44636072     0.39000
C1306       C  0.92630602  0.27591296  0.42439205     0.36000
C1307       C  0.94544803  0.23166406  0.45206141     0.36700
C1308       C  0.04470073  0.13665498  0.42093239     0.39900
N1309       N  0.08573028  0.38978927  0.45104725    -0.38200
N1310       N  0.08378668  0.26080649  0.45231125    -0.39700
N1311       N  0.90404021  0.38497886  0.41690892    -0.37500
N1312       N  0.89888120  0.25635910  0.42025607    -0.39900
N1313       N  0.05591266  0.24748148  0.41260056    -0.39700
N1314       N  0.06549980  0.11809532  0.41466444    -0.37300
N1315       N  0.93233681  0.12172748  0.46049811    -0.38300
N1316       N  0.92577323  0.25134080  0.45834033    -0.40000
C1317       C  0.01147934  0.02956239  0.51213768    -0.04900
C1318       C  0.99569104  0.99374495  0.50621758     0.09200
C1319       C  0.98254232  0.95578944  0.51166726    -0.02300
C1320       C  0.98433297  0.95394670  0.52304879    -0.00600
C1321       C  0.99883908  0.99027875  0.52898199    -0.04200
C1322       C  0.01265069  0.02799546  0.52351861     0.02800
C1323       C  0.99473627  0.99528901  0.49417147     0.09700
C1324       C  0.96797298  0.91841925  0.50551100     0.35600
C1325       C  0.02733051  0.06547203  0.52963679     0.39000
C1326       C  0.03257654  0.98591614  0.48831994    -0.04600
C1327       C  0.03230521  0.98727047  0.47693759     0.02600
C1328       C  0.99404867  0.99935921  0.47119652    -0.04200
C1329       C  0.95569439  0.00814900  0.47724403    -0.00400
C1330       C  0.95615546  0.00560603  0.48866862    -0.03000
C1331       C  0.07201652  0.97451618  0.49409596     0.36300
C1332       C  0.91561398  0.02046001  0.47191923     0.39900
C1333       C  0.07181744  0.97511696  0.47131966     0.39000
C1334       C  0.91683554  0.01328259  0.49485926     0.36000
C1335       C  0.02727744  0.06768014  0.50649209     0.36700
C1336       C  0.97273492  0.91415844  0.52860776     0.39900
N1337       N  0.10364193  0.96568364  0.46696576    -0.38200
N1338       N  0.10346089  0.96557098  0.49868601    -0.39700
N1339       N  0.88330651  0.03024792  0.46783301    -0.37500
N1340       N  0.88565242  0.01894029  0.49987067    -0.39900
N1341       N  0.95640447  0.88866831  0.50058655    -0.39700
N1342       N  0.96371378  0.88214796  0.53293213    -0.37300
N1343       N  0.03894713  0.09527149  0.53453681    -0.38300
N1344       N  0.04034938  0.09791708  0.50201688    -0.40000
C1345       C  0.45735726  0.50299592  0.26172863    -0.04900
C1346       C  0.49657415  0.49589954  0.25619217     0.09200
C1347       C  0.53515123  0.49010612  0.26208704    -0.02300
C1348       C  0.53454390  0.49003349  0.27351643    -0.00600
C1349       C  0.49513100  0.49743069  0.27927932    -0.04200
C1350       C  0.45647847  0.50420763  0.27316838     0.02800
C1351       C  0.49751175  0.49532780  0.24407152     0.09700
C1352       C  0.57591578  0.48512298  0.25632487     0.35600
C1353       C  0.41552359  0.51356177  0.27846120     0.39000
C1354       C  0.50281605  0.53422043  0.23829992    -0.04600
C1355       C  0.50559967  0.53384574  0.22689071     0.02600
C1356       C  0.50161775  0.49417279  0.22100252    -0.04200
C1357       C  0.49502342  0.45516290  0.22698340    -0.00400
C1358       C  0.49345252  0.45593368  0.23841938    -0.03000
C1359       C  0.50485059  0.57494322  0.24419505     0.36300
C1360       C  0.48891279  0.41385083  0.22155235     0.39900
C1361       C  0.51317490  0.57482748  0.22142075     0.39000
C1362       C  0.48695678  0.41606149  0.24445844     0.36000
C1363       C  0.41785830  0.50991013  0.25556159     0.36700
C1364       C  0.57503289  0.48184622  0.27915715     0.39900
N1365       N  0.51916852  0.60761926  0.21712688    -0.38200
N1366       N  0.50601007  0.60732219  0.24891281    -0.39700
N1367       N  0.48397926  0.38077958  0.21730179    -0.37500
N1368       N  0.48166496  0.38436487  0.24928172    -0.39900
N1369       N  0.60853680  0.48157515  0.25178770    -0.39700
N1370       N  0.60751022  0.47547802  0.28356791    -0.37300
N1371       N  0.38270391  0.52105638  0.28259199    -0.38300
N1372       N  0.38645691  0.51558693  0.25063778    -0.40000
C1373       C  0.47419312  0.52733232  0.36390101    -0.04900
C1374       C  0.49838197  0.49528648  0.36938443     0.09200
C1375       C  0.52165474  0.46413613  0.36336028    -0.02300
C1376       C  0.52019466  0.46461546  0.35192639    -0.00600
C1377       C  0.49640222  0.49706439  0.34643794    -0.04200
C1378       C  0.47385293  0.52873432  0.35247567     0.02800
C1379       C  0.49946655  0.49471146  0.38153530     0.09700
C1380       C  0.54737937  0.43182645  0.36896381     0.35600
C1381       C  0.45210544  0.56405466  0.34693930     0.39000
C1382       C  0.47316267  0.46540763  0.38735149    -0.04600
C1383       C  0.47304550  0.46589177  0.39879936     0.02600
C1384       C  0.49874157  0.49631091  0.40453283    -0.04200
C1385       C  0.52478517  0.52587858  0.39865860    -0.00400
C1386       C  0.52560881  0.52459986  0.38722431    -0.03000
C1387       C  0.44569445  0.43522735  0.38148767     0.36300
C1388       C  0.54875327  0.55938979  0.40434468     0.39900
C1389       C  0.44685529  0.43461075  0.40465331     0.39000
C1390       C  0.55299441  0.55441971  0.38124086     0.36000
C1391       C  0.44960108  0.55886567  0.37007260     0.36700
C1392       C  0.54233626  0.43105561  0.34581481     0.39900
N1393       N  0.42592027  0.40965371  0.40930424    -0.38200
N1394       N  0.42387881  0.41136767  0.37672487    -0.39700
N1395       N  0.56743030  0.58635135  0.40890331    -0.37500
N1396       N  0.57470681  0.57807541  0.37639678    -0.39900
N1397       N  0.56795428  0.40617277  0.37346209    -0.39700
N1398       N  0.55982898  0.40425173  0.34092951    -0.37300
N1399       N  0.43524121  0.59245509  0.34250678    -0.38300
N1400       N  0.42999027  0.58383230  0.37505643    -0.40000
C1401       C  0.52355290  0.79691733  0.30778871    -0.04900
C1402       C  0.49371156  0.77383752  0.31424934     0.09200
C1403       C  0.46526795  0.79682931  0.32111673    -0.02300
C1404       C  0.46654387  0.84259413  0.32151391    -0.00600
C1405       C  0.49542793  0.86590932  0.31476394    -0.04200
C1406       C  0.52335420  0.84267689  0.30773543     0.02800
C1407       C  0.49264840  0.72518911  0.31396058     0.09700
C1408       C  0.43540229  0.77312974  0.32799389     0.35600
C1409       C  0.55075114  0.86574219  0.30009889     0.39000
C1410       C  0.51603660  0.70108063  0.32170080    -0.04600
C1411       C  0.51492913  0.65534866  0.32151848     0.02600
C1412       C  0.49035152  0.63313091  0.31356639    -0.04200
C1413       C  0.46638249  0.65737206  0.30589863    -0.00400
C1414       C  0.46783745  0.70321515  0.30605286    -0.03000
C1415       C  0.54135115  0.72353373  0.32987171     0.36300
C1416       C  0.44113547  0.63524696  0.29765935     0.39900
C1417       C  0.53806527  0.63115997  0.32977610     0.39000
C1418       C  0.44410638  0.72796933  0.29801662     0.36000
C1419       C  0.55560977  0.77349901  0.30149813     0.36700
C1420       C  0.43933446  0.86546539  0.32920811     0.39900
N1421       N  0.55638645  0.61182237  0.33637206    -0.38200
N1422       N  0.56148290  0.74149947  0.33638671    -0.39700
N1423       N  0.42088456  0.61766167  0.29109985    -0.37500
N1424       N  0.42535229  0.74783011  0.29159757    -0.39900
N1425       N  0.41175505  0.75410599  0.33350076    -0.39700
N1426       N  0.41783731  0.88375588  0.33538030    -0.37300
N1427       N  0.57220755  0.88427390  0.29395885    -0.38300
N1428       N  0.58175273  0.75496165  0.29663324    -0.40000
C1429       C  0.53875215  0.20172843  0.32060101    -0.04900
C1430       C  0.51044912  0.22506223  0.31379993     0.09200
C1431       C  0.48176144  0.20267795  0.30688180    -0.02300
C1432       C  0.48077334  0.15702640  0.30688049    -0.00600
C1433       C  0.50811152  0.13344687  0.31395117    -0.04200
C1434       C  0.53756698  0.15603775  0.32070627     0.02800
C1435       C  0.50948748  0.27342356  0.31411687     0.09700
C1436       C  0.45291045  0.22696909  0.29985051     0.35600
C1437       C  0.56557941  0.13237223  0.32806894     0.39000
C1438       C  0.53824848  0.29767068  0.30766341    -0.04600
C1439       C  0.53418027  0.34312091  0.30707478     0.02600
C1440       C  0.50266064  0.36496578  0.31341970    -0.04200
C1441       C  0.47512198  0.34040545  0.32026910    -0.00400
C1442       C  0.47795947  0.29479044  0.32041023    -0.03000
C1443       C  0.57190518  0.27563450  0.30156848     0.36300
C1444       C  0.44488289  0.36183903  0.32749942     0.39900
C1445       C  0.56132945  0.36684426  0.29953009     0.39000
C1446       C  0.44823397  0.26943610  0.32696884     0.36000
C1447       C  0.56850669  0.22490441  0.32762957     0.36700
C1448       C  0.45258471  0.13446742  0.29933103     0.39900
N1449       N  0.58303317  0.38521075  0.29341990    -0.38200
N1450       N  0.59899901  0.25809140  0.29680003    -0.39700
N1451       N  0.42090417  0.37871782  0.33334117    -0.37500
N1452       N  0.42458693  0.24873416  0.33208725    -0.39900
N1453       N  0.42994281  0.24673004  0.29433272    -0.39700
N1454       N  0.43021862  0.11669503  0.29324857    -0.37300
N1455       N  0.58782645  0.11327496  0.33391077    -0.38300
N1456       N  0.59225563  0.24344435  0.33321950    -0.40000
C1457       C  0.52018922  0.02084694  0.26378158    -0.04900
C1458       C  0.48720646  0.99638966  0.25870938     0.09200
C1459       C  0.45817681  0.97193216  0.26508639    -0.02300
C1460       C  0.46236423  0.97145616  0.27645006    -0.00600
C1461       C  0.49441197  0.99712116  0.28159627    -0.04200
C1462       C  0.52333803  0.02187175  0.27517991     0.02800
C1463       C  0.48301805  0.99627098  0.24661980     0.09700
C1464       C  0.42385682  0.94721688  0.25990423     0.35600
C1465       C  0.55552489  0.04960416  0.28025880     0.39000
C1466       C  0.49413957  0.95903920  0.24064597    -0.04600
C1467       C  0.48949869  0.95844430  0.22927342     0.02600
C1468       C  0.47562429  0.99621789  0.22359371    -0.04200
C1469       C  0.46471141  0.03374863  0.22976121    -0.00400
C1470       C  0.46738742  0.03317993  0.24118285    -0.03000
C1471       C  0.51058833  0.92110875  0.24628114     0.36300
C1472       C  0.45050467  0.07342150  0.22455591     0.39900
C1473       C  0.49960775  0.91848606  0.22360619     0.39000
C1474       C  0.45350601  0.07058104  0.24744531     0.36000
C1475       C  0.55095317  0.04499190  0.25723083     0.36700
C1476       C  0.43477519  0.94295830  0.28278477     0.39900
N1477       N  0.50730548  0.88619017  0.21924707    -0.38200
N1478       N  0.52344640  0.89092649  0.25081091    -0.39700
N1479       N  0.43957131  0.10553946  0.22056708    -0.37500
N1480       N  0.44242352  0.10015405  0.25249563    -0.39900
N1481       N  0.39669708  0.92748283  0.25572079    -0.39700
N1482       N  0.41301158  0.91995225  0.28780566    -0.37300
N1483       N  0.58115942  0.07183637  0.28426288    -0.38300
N1484       N  0.57541283  0.06425938  0.25200806    -0.40000
C1485       C  0.53276634  0.97278562  0.36573021    -0.04900
C1486       C  0.50884472  0.00411720  0.37150917     0.09200
C1487       C  0.48434438  0.03515953  0.36579480    -0.02300
C1488       C  0.48265990  0.03409379  0.35436303    -0.00600
C1489       C  0.50755371  0.00341323  0.34851226    -0.04200
C1490       C  0.53362813  0.97353925  0.35429118     0.02800
C1491       C  0.50819681  0.00351070  0.38364965     0.09700
C1492       C  0.46070498  0.06809821  0.37174430     0.35600
C1493       C  0.56080524  0.94286821  0.34853050     0.39000
C1494       C  0.53956105  0.02664901  0.38963427    -0.04600
C1495       C  0.53911881  0.02556490  0.40107580     0.02600
C1496       C  0.50663049  0.00185696  0.40665172    -0.04200
C1497       C  0.47441548  0.97974864  0.40056806    -0.00400
C1498       C  0.47555007  0.98031866  0.38914311    -0.03000
C1499       C  0.57156358  0.05266390  0.38398642     0.36300
C1500       C  0.43997556  0.95607778  0.40598467     0.39900
C1501       C  0.57096454  0.05066402  0.40706333     0.39000
C1502       C  0.44279715  0.95728295  0.38296400     0.36000
C1503       C  0.55503011  0.93862147  0.37157406     0.36700
C1504       C  0.45586040  0.06523147  0.34864773     0.39900
N1505       N  0.59623264  0.07065985  0.41187839    -0.38200
N1506       N  0.59688108  0.07376586  0.37950912    -0.39700
N1507       N  0.41224484  0.93764370  0.41030778    -0.37500
N1508       N  0.41672334  0.93903408  0.37799371    -0.39900
N1509       N  0.44215568  0.09442655  0.37654247    -0.39700
N1510       N  0.43423512  0.08988019  0.34410351    -0.37300
N1511       N  0.58304165  0.91868492  0.34401158    -0.38300
N1512       N  0.57214205  0.91089862  0.37620980    -0.40000
C1513       C  0.01735515  0.46475897  0.25904338    -0.04900
C1514       C  0.01275126  0.50414480  0.25332739     0.09200
C1515       C  0.00711258  0.54326338  0.25912057    -0.02300
C1516       C  0.00377268  0.54266427  0.27050764    -0.00600
C1517       C  0.00890951  0.50338077  0.27619513    -0.04200
C1518       C  0.01683395  0.46460676  0.27046198     0.02800
C1519       C  0.01216436  0.50426267  0.24119977     0.09700
C1520       C  0.00562836  0.58421963  0.25336432     0.35600
C1521       C  0.02488074  0.42459362  0.27628879     0.39000
C1522       C  0.97286228  0.51196739  0.23564534    -0.04600
C1523       C  0.97207310  0.51282219  0.22423340     0.02600
C1524       C  0.01023159  0.50428633  0.21831617    -0.04200
C1525       C  0.04917290  0.49493229  0.22383012    -0.00400
C1526       C  0.05037248  0.49576752  0.23524761    -0.03000
C1527       C  0.93294849  0.51754159  0.24170897     0.36300
C1528       C  0.08782220  0.48377396  0.21773350     0.39900
C1529       C  0.93166238  0.52110899  0.21858405     0.39000
C1530       C  0.09078174  0.48734419  0.24087685     0.36000
C1531       C  0.02224995  0.42434854  0.25314886     0.36700
C1532       C  0.99548612  0.58253839  0.27639878     0.39900
N1533       N  0.89928994  0.52773073  0.21414873    -0.38200
N1534       N  0.90122226  0.52170144  0.24659822    -0.39700
N1535       N  0.11845518  0.47437508  0.21286269    -0.37500
N1536       N  0.12293140  0.48024884  0.24536702    -0.39900
N1537       N  0.00480994  0.61695282  0.24879907    -0.39700
N1538       N  0.98861625  0.61426517  0.28109401    -0.37300
N1539       N  0.03201300  0.39257914  0.28082543    -0.38300
N1540       N  0.02625590  0.39227827  0.24839371    -0.40000
C1541       C  0.02573836  0.53749211  0.35985722    -0.04900
C1542       C  0.00281812  0.50535054  0.36561415     0.09200
C1543       C  0.97989124  0.47289723  0.35994840    -0.02300
C1544       C  0.98126541  0.47155208  0.34855017    -0.00600
C1545       C  0.00359998  0.50410188  0.34276019    -0.04200
C1546       C  0.02598004  0.53704811  0.34844524     0.02800
C1547       C  0.00274117  0.50569918  0.37769741     0.09700
C1548       C  0.95424413  0.44140378  0.36587619     0.35600
C1549       C  0.04892864  0.57075308  0.34256694     0.39000
C1550       C  0.97288349  0.53183858  0.38331164    -0.04600
C1551       C  0.97197423  0.53162159  0.39472674     0.02600
C1552       C  0.00135385  0.50537115  0.40064007    -0.04200
C1553       C  0.03145548  0.47921919  0.39491850    -0.00400
C1554       C  0.03212298  0.47953692  0.38348913    -0.03000
C1555       C  0.94299669  0.55890494  0.37725626     0.36300
C1556       C  0.06042349  0.45026916  0.40069840     0.39900
C1557       C  0.94095444  0.55896006  0.40031801     0.39000
C1558       C  0.06277539  0.45262514  0.37762471     0.36000
C1559       C  0.04856131  0.57129667  0.36572856     0.36700
C1560       C  0.96214547  0.43514372  0.34282177     0.39900
N1561       N  0.91591936  0.58059717  0.40472476    -0.38200
N1562       N  0.91940193  0.58041070  0.37234402    -0.39700
N1563       N  0.08351180  0.42692283  0.40522508    -0.37500
N1564       N  0.08707447  0.43117450  0.37291010    -0.39900
N1565       N  0.93338525  0.41665281  0.37061238    -0.39700
N1566       N  0.94764400  0.40570623  0.33827305    -0.37300
N1567       N  0.06736580  0.59754158  0.33789276    -0.38300
N1568       N  0.06652196  0.59825202  0.37046220    -0.40000
C1569       C  0.03000475  0.80044831  0.31990477    -0.04900
C1570       C  0.00362372  0.77767715  0.31250329     0.09200
C1571       C  0.97673250  0.80075968  0.30528663    -0.02300
C1572       C  0.97672212  0.84649046  0.30534320    -0.00600
C1573       C  0.00369420  0.86944352  0.31265477    -0.04200
C1574       C  0.03058268  0.84613669  0.31987946     0.02800
C1575       C  0.00499119  0.72924073  0.31209734     0.09700
C1576       C  0.94905687  0.77723563  0.29780001     0.35600
C1577       C  0.05840615  0.86910370  0.32744079     0.39000
C1578       C  0.97307830  0.70458640  0.31744771    -0.04600
C1579       C  0.97377271  0.65893465  0.31684359     0.02600
C1580       C  0.00628548  0.63740650  0.31072579    -0.04200
C1581       C  0.03877411  0.66247002  0.30553371    -0.00400
C1582       C  0.03806745  0.70812363  0.30624928    -0.03000
C1583       C  0.93955455  0.72638429  0.32363878     0.36300
C1584       C  0.07246163  0.64167623  0.29918915     0.39900
C1585       C  0.94169187  0.63438463  0.32288695     0.39000
C1586       C  0.07124011  0.73366596  0.30087737     0.36000
C1587       C  0.05587679  0.77670723  0.32771453     0.36700
C1588       C  0.95032791  0.86973714  0.29753215     0.39900
N1589       N  0.91605726  0.61501476  0.32772966    -0.38200
N1590       N  0.91276789  0.74371744  0.32856262    -0.39700
N1591       N  0.09943867  0.62520070  0.29414724    -0.37500
N1592       N  0.09767260  0.75417483  0.29663504    -0.39900
N1593       N  0.92687264  0.75834328  0.29189003    -0.39700
N1594       N  0.92934322  0.88802415  0.29125161    -0.37300
N1595       N  0.08077541  0.88750455  0.33340467    -0.38300
N1596       N  0.07622974  0.75781963  0.33400875    -0.40000
C1597       C  0.02469789  0.20381915  0.30279393    -0.04900
C1598       C  0.00124466  0.22878629  0.31037154     0.09200
C1599       C  0.97775981  0.20774476  0.31866677    -0.02300
C1600       C  0.97936957  0.16220743  0.31969496    -0.00600
C1601       C  0.00233080  0.13710060  0.31202155    -0.04200
C1602       C  0.02413202  0.15813495  0.30341583     0.02800
C1603       C  0.00246407  0.27735158  0.30991892     0.09700
C1604       C  0.95171754  0.23314370  0.32611954     0.35600
C1605       C  0.04449537  0.13272141  0.29492815     0.39000
C1606       C  0.97650274  0.30015689  0.30243234    -0.04600
C1607       C  0.97606352  0.34592718  0.30244802     0.02600
C1608       C  0.00284577  0.36931789  0.30971940    -0.04200
C1609       C  0.02911543  0.34630787  0.31715630    -0.00400
C1610       C  0.02885305  0.30057630  0.31724326    -0.03000
C1611       C  0.95063843  0.27642303  0.29460724     0.36300
C1612       C  0.05514375  0.36959104  0.32504935     0.39900
C1613       C  0.94852665  0.36879787  0.29481663     0.39000
C1614       C  0.05594429  0.27709702  0.32484804     0.36000
C1615       C  0.04985874  0.22520488  0.29442794     0.36700
C1616       C  0.95903898  0.14147950  0.32894100     0.39900
N1617       N  0.92651864  0.38700732  0.28874458    -0.38200
N1618       N  0.93038639  0.25757303  0.28827099    -0.39700
N1619       N  0.07579124  0.38817961  0.33135600    -0.37500
N1620       N  0.07738628  0.25799756  0.33087246    -0.39900
N1621       N  0.93071389  0.25347775  0.33198551    -0.39700
N1622       N  0.94322858  0.12522732  0.33640905    -0.37300
N1623       N  0.06023987  0.11238634  0.28810776    -0.38300
N1624       N  0.07014481  0.24215933  0.28777930    -0.40000
C1625       C  0.97333144  0.03362513  0.26277541    -0.04900
C1626       C  0.99547753  0.00145886  0.25684726     0.09200
C1627       C  0.02033615  0.97002555  0.26234664    -0.02300
C1628       C  0.02326731  0.97095545  0.27375191    -0.00600
C1629       C  0.99994560  0.00241785  0.27971383    -0.04200
C1630       C  0.97497836  0.03372499  0.27417605     0.02800
C1631       C  0.99269001  0.00100200  0.24476717     0.09700
C1632       C  0.04252899  0.93652881  0.25624422     0.35600
C1633       C  0.95200448  0.06693096  0.28020699     0.39000
C1634       C  0.02362336  0.02362529  0.23853638    -0.04600
C1635       C  0.02004129  0.02464958  0.22713920     0.02600
C1636       C  0.98573121  0.00243102  0.22191474    -0.04200
C1637       C  0.95572008  0.97850144  0.22818299    -0.00400
C1638       C  0.95869751  0.97854663  0.23957710    -0.03000
C1639       C  0.05919775  0.04568070  0.24391734     0.36300
C1640       C  0.92153269  0.95391460  0.22292743     0.39900
C1641       C  0.05286422  0.04682661  0.22079451     0.39000
C1642       C  0.92638984  0.95595972  0.24598967     0.36000
C1643       C  0.94929997  0.06702659  0.25710487     0.36700
C1644       C  0.04958057  0.93898811  0.27933517     0.39900
N1645       N  0.07927787  0.06434468  0.21577202    -0.38200
N1646       N  0.08750858  0.06303869  0.24828752    -0.39700
N1647       N  0.89461187  0.93389589  0.21872167    -0.37500
N1648       N  0.90034874  0.93815688  0.25106504    -0.39900
N1649       N  0.06005886  0.90969228  0.25138053    -0.39700
N1650       N  0.07079444  0.91368434  0.28377681    -0.37300
N1651       N  0.93371117  0.09323863  0.28507586    -0.38300
N1652       N  0.93036985  0.09387496  0.25259419    -0.40000
C1653       C  0.97910809  0.97633367  0.36393844    -0.04900
C1654       C  0.01070378  0.00073476  0.36948861     0.09200
C1655       C  0.04157039  0.02481689  0.36361248    -0.02300
C1656       C  0.04027483  0.02539805  0.35219102    -0.00600
C1657       C  0.00820226  0.00134581  0.34653294    -0.04200
C1658       C  0.97827138  0.97593842  0.35251835     0.02800
C1659       C  0.01070377  0.00188322  0.38157632     0.09700
C1660       C  0.07454453  0.04930718  0.36936825     0.35600
C1661       C  0.94794693  0.94744937  0.34701414     0.39000
C1662       C  0.03246925  0.96954917  0.38754676    -0.04600
C1663       C  0.03200079  0.97063837  0.39896819     0.02600
C1664       C  0.00822088  0.00315591  0.40443752    -0.04200
C1665       C  0.98621463  0.03526890  0.39843310    -0.00400
C1666       C  0.98787751  0.03487690  0.38704012    -0.03000
C1667       C  0.05406188  0.93437622  0.38191623     0.36300
C1668       C  0.96232352  0.06917691  0.40398332     0.39900
C1669       C  0.05473505  0.93739719  0.40505045     0.39000
C1670       C  0.96545464  0.06806309  0.38089742     0.36000
C1671       C  0.94726951  0.95170575  0.37003743     0.36700
C1672       C  0.07172252  0.05146723  0.34634961     0.39900
N1673       N  0.07303572  0.91089080  0.40984974    -0.38200
N1674       N  0.07081935  0.90599312  0.37744854    -0.39700
N1675       N  0.94315954  0.09605865  0.40842662    -0.37500
N1676       N  0.94752632  0.09453488  0.37600979    -0.39900
N1677       N  0.10088009  0.06880581  0.37393889    -0.39700
N1678       N  0.09705839  0.07206613  0.34173216    -0.37300
N1679       N  0.92392766  0.92424694  0.34273442    -0.38300
N1680       N  0.92183358  0.93219359  0.37490546    -0.40000
C1681       C  0.45493746  0.48569226  0.88741435    -0.04900
C1682       C  0.49313050  0.49634634  0.88171261     0.09200
C1683       C  0.53171214  0.50519030  0.88745815    -0.02300
C1684       C  0.53229147  0.50261495  0.89885715    -0.00600
C1685       C  0.49432141  0.49105881  0.90454339    -0.04200
C1686       C  0.45545966  0.48324300  0.89881767     0.02800
C1687       C  0.49297854  0.49712329  0.86960871     0.09700
C1688       C  0.57079460  0.51682883  0.88160788     0.35600
C1689       C  0.41566806  0.47419108  0.90466776     0.39000
C1690       C  0.48502962  0.53600565  0.86401262    -0.04600
C1691       C  0.48458820  0.53666593  0.85257658     0.02600
C1692       C  0.49241452  0.49802637  0.84653869    -0.04200
C1693       C  0.50118823  0.45907880  0.85235641    -0.00400
C1694       C  0.50089552  0.45877040  0.86378599    -0.03000
C1695       C  0.47701005  0.57546298  0.87010252     0.36300
C1696       C  0.51165163  0.41898533  0.84678706     0.39900
C1697       C  0.47563229  0.57753390  0.84719416     0.39000
C1698       C  0.50867523  0.41869301  0.86964775     0.36000
C1699       C  0.41510962  0.47736575  0.88150402     0.36700
C1700       C  0.57202641  0.51145446  0.90477664     0.39900
N1701       N  0.46873365  0.61016916  0.84291810    -0.38200
N1702       N  0.47065198  0.60690157  0.87495768    -0.39700
N1703       N  0.52005185  0.38668398  0.84251362    -0.37500
N1704       N  0.51469396  0.38677459  0.87432311    -0.39900
N1705       N  0.60193822  0.52620591  0.87694102    -0.39700
N1706       N  0.60346854  0.51853418  0.90957703    -0.37300
N1707       N  0.38372807  0.46724267  0.90926400    -0.38300
N1708       N  0.38341418  0.47072761  0.87677250    -0.40000
C1709       C  0.54715769  0.01881366  0.86515307    -0.04900
C1710       C  0.50912574  0.00573583  0.87062945     0.09200
C1711       C  0.47259624  0.99238216  0.86459348    -0.02300
C1712       C  0.47491971  0.98962956  0.85319790    -0.00600
C1713       C  0.51277662  0.00312350  0.84772162    -0.04200
C1714       C  0.54846667  0.01888315  0.85371462     0.02800
C1715       C  0.50750346  0.00587901  0.88278023     0.09700
C1716       C  0.43230451  0.98260173  0.87013377     0.35600
C1717       C  0.58651739  0.03504387  0.84809703     0.39000
C1718       C  0.49417400  0.04322408  0.88838648    -0.04600
C1719       C  0.49332666  0.04385645  0.89983920     0.02600
C1720       C  0.50418582  0.00607728  0.90593269    -0.04200
C1721       C  0.51646147  0.96804516  0.90008930    -0.00400
C1722       C  0.51878786  0.96844574  0.88863674    -0.03000
C1723       C  0.48044690  0.08097506  0.88226550     0.36300
C1724       C  0.52689263  0.92798358  0.90566038     0.39900
C1725       C  0.48064234  0.08384582  0.90514852     0.39000
C1726       C  0.53283742  0.93016270  0.88275440     0.36000
C1727       C  0.58503114  0.03178762  0.87132421     0.36700
C1728       C  0.43811872  0.97348750  0.84706434     0.39900
N1729       N  0.47086498  0.11615597  0.90922914    -0.38200
N1730       N  0.46912157  0.11082585  0.87735927    -0.39700
N1731       N  0.53483795  0.89563472  0.90996318    -0.37500
N1732       N  0.54410489  0.89998096  0.87795829    -0.39900
N1733       N  0.40005176  0.97554099  0.87457772    -0.39700
N1734       N  0.40901938  0.96034894  0.84214040    -0.37300
N1735       N  0.61658315  0.04839772  0.84359245    -0.38300
N1736       N  0.61531028  0.04177973  0.87626264    -0.40000
C1737       C  0.78580899  0.46363486  0.80376490    -0.04900
C1738       C  0.76158607  0.49460582  0.80957505     0.09200
C1739       C  0.78321801  0.52766194  0.81533072    -0.02300
C1740       C  0.82886499  0.53004021  0.81523141    -0.00600
C1741       C  0.85343797  0.49954478  0.80924804    -0.04200
C1742       C  0.83150332  0.46641139  0.80344797     0.02800
C1743       C  0.71311792  0.49254940  0.80972697     0.09700
C1744       C  0.75836422  0.55886288  0.82155279     0.35600
C1745       C  0.85560174  0.43610474  0.79677718     0.39000
C1746       C  0.69164637  0.46648279  0.81741957    -0.04600
C1747       C  0.64597524  0.46708038  0.81813423     0.02600
C1748       C  0.62139436  0.49344123  0.81104329    -0.04200
C1749       C  0.64306469  0.51852704  0.80310782    -0.00400
C1750       C  0.68872202  0.51799622  0.80245896    -0.03000
C1751       C  0.71683043  0.43910100  0.82461155     0.36300
C1752       C  0.61841978  0.54410059  0.79539305     0.39900
C1753       C  0.62460549  0.44195363  0.82649559     0.39000
C1754       C  0.71072315  0.54328880  0.79421535     0.36000
C1755       C  0.76356745  0.42859118  0.79821504     0.36700
C1756       C  0.85037892  0.56324256  0.82161073     0.39900
N1757       N  0.60790682  0.42190731  0.83322571    -0.38200
N1758       N  0.73715231  0.41712599  0.83025017    -0.39700
N1759       N  0.59882573  0.56445584  0.78923056    -0.37500
N1760       N  0.72813383  0.56331082  0.78759201    -0.39900
N1761       N  0.73869917  0.58376111  0.82654622    -0.39700
N1762       N  0.86743750  0.58977000  0.82669005    -0.37300
N1763       N  0.87461374  0.41202901  0.79138602    -0.38300
N1764       N  0.74583486  0.40042389  0.79388421    -0.40000
C1765       C  0.28510888  0.48863488  0.80459688    -0.04900
C1766       C  0.26233400  0.51027545  0.81289187     0.09200
C1767       C  0.28545265  0.53018790  0.82142223    -0.02300
C1768       C  0.33121602  0.52854691  0.82163593    -0.00600
C1769       C  0.35403484  0.50615232  0.81341964    -0.04200
C1770       C  0.33073954  0.48638198  0.80487575     0.02800
C1771       C  0.21380882  0.51145538  0.81267383     0.09700
C1772       C  0.26201360  0.55214967  0.83000968     0.35600
C1773       C  0.35382812  0.46500930  0.79613645     0.39000
C1774       C  0.18982090  0.48008698  0.81839679    -0.04600
C1775       C  0.14410091  0.48042292  0.81806117     0.02600
C1776       C  0.12174077  0.51159489  0.81170589    -0.04200
C1777       C  0.14617782  0.54304204  0.80593914    -0.00400
C1778       C  0.19196026  0.54274876  0.80640463    -0.03000
C1779       C  0.21247731  0.44636862  0.82432281     0.36300
C1780       C  0.12464773  0.57475570  0.79913583     0.39900
C1781       C  0.12034448  0.44894552  0.82447892     0.39000
C1782       C  0.21694058  0.57351508  0.80006472     0.36000
C1783       C  0.26135581  0.46881595  0.79573853     0.36700
C1784       C  0.35459586  0.54919278  0.83043996     0.39900
N1785       N  0.10154792  0.42375629  0.82959719    -0.38200
N1786       N  0.23065538  0.41926895  0.82893106    -0.39700
N1787       N  0.10770655  0.60015975  0.79370027    -0.37500
N1788       N  0.23712494  0.59755278  0.79493189    -0.39900
N1789       N  0.24336515  0.56954126  0.83688213    -0.39700
N1790       N  0.37281800  0.56590362  0.83749546    -0.37300
N1791       N  0.37235129  0.44812847  0.78916227    -0.38300
N1792       N  0.24221044  0.45323717  0.78867695    -0.40000
C1793       C  0.02006815  0.53028599  0.86037911    -0.04900
C1794       C  0.98641126  0.50949754  0.86615644     0.09200
C1795       C  0.95120339  0.49114190  0.86045126    -0.02300
C1796       C  0.95002606  0.49287924  0.84904034    -0.00600
C1797       C  0.98412907  0.51277932  0.84326775    -0.04200
C1798       C  0.01874938  0.53225202  0.84895965     0.02800
C1799       C  0.98794675  0.50712242  0.87827794     0.09700
C1800       C  0.91634096  0.47015153  0.86633898     0.35600
C1801       C  0.05348134  0.55334113  0.84301917     0.39000
C1802       C  0.97414284  0.54256890  0.88456433    -0.04600
C1803       C  0.97576535  0.54064599  0.89600753     0.02600
C1804       C  0.99098882  0.50258431  0.90136614    -0.04200
C1805       C  0.00573413  0.46741124  0.89485404    -0.00400
C1806       C  0.00371540  0.46966199  0.88343628    -0.03000
C1807       C  0.95804926  0.58112411  0.87913719     0.36300
C1808       C  0.02467478  0.42903799  0.89971970     0.39900
C1809       C  0.96177942  0.57839878  0.90208360     0.39000
C1810       C  0.01808439  0.43319461  0.87692111     0.36000
C1811       C  0.05649992  0.54878980  0.86620866     0.36700
C1812       C  0.91312796  0.47527026  0.84320168     0.39900
N1813       N  0.95091836  0.60889783  0.90681686    -0.38200
N1814       N  0.94537786  0.61158492  0.87469125    -0.39700
N1815       N  0.03991540  0.39827890  0.90348344    -0.37500
N1816       N  0.02938983  0.40398283  0.87177425    -0.39900
N1817       N  0.88856223  0.45324017  0.87100699    -0.39700
N1818       N  0.88370292  0.46161190  0.83848831    -0.37300
N1819       N  0.08086534  0.57021589  0.83819336    -0.38300
N1820       N  0.08557008  0.56340212  0.87087650    -0.40000
C1821       C  0.71406876  0.03195739  0.80446391    -0.04900
C1822       C  0.74029802  0.01094783  0.81221899     0.09200
C1823       C  0.72080597  0.98592275  0.82046132    -0.02300
C1824       C  0.67530513  0.98309313  0.82119586    -0.00600
C1825       C  0.64895006  0.00449683  0.81352726    -0.04200
C1826       C  0.66852656  0.02849538  0.80506892     0.02800
C1827       C  0.78863963  0.01376882  0.81163597     0.09700
C1828       C  0.74784670  0.96224425  0.82804199     0.35600
C1829       C  0.64183348  0.04796356  0.79668785     0.39000
C1830       C  0.81155344  0.04084151  0.81887791    -0.04600
C1831       C  0.85728341  0.03989722  0.81915968     0.02600
C1832       C  0.88035310  0.01141269  0.81227608    -0.04200
C1833       C  0.85728090  0.98515453  0.80483879    -0.00400
C1834       C  0.81164101  0.98643788  0.80451418    -0.03000
C1835       C  0.78786667  0.06849176  0.82632444     0.36300
C1836       C  0.88047359  0.95683450  0.79744562     0.39900
C1837       C  0.88037735  0.06661100  0.82693296     0.39000
C1838       C  0.78817779  0.95856728  0.79706910     0.36000
C1839       C  0.73390972  0.05642397  0.79573848     0.36700
C1840       C  0.65562870  0.95893023  0.82999728     0.39900
N1841       N  0.89881948  0.08787878  0.83313420    -0.38200
N1842       N  0.76895323  0.09023927  0.83231756    -0.39700
N1843       N  0.89905807  0.93415545  0.79160311    -0.37500
N1844       N  0.76953040  0.93633153  0.79112493    -0.39900
N1845       N  0.76966473  0.94323872  0.83399922    -0.39700
N1846       N  0.63979596  0.93977991  0.83701743    -0.37300
N1847       N  0.62035393  0.06308274  0.78999768    -0.38300
N1848       N  0.74934870  0.07579835  0.78869941    -0.40000
C1849       C  0.31285859  0.95922021  0.80754442    -0.04900
C1850       C  0.28888328  0.98922417  0.81377184     0.09200
C1851       C  0.31118287  0.01969396  0.82023667    -0.02300
C1852       C  0.35697787  0.02044980  0.82043660    -0.00600
C1853       C  0.38121682  0.99042544  0.81419826    -0.04200
C1854       C  0.35873565  0.95976429  0.80774304     0.02800
C1855       C  0.24010135  0.98938331  0.81339603     0.09700
C1856       C  0.28682977  0.05047544  0.82670584     0.35600
C1857       C  0.38264194  0.93013807  0.80083774     0.39000
C1858       C  0.21595574  0.95979905  0.81970512    -0.04600
C1859       C  0.17009416  0.96092838  0.81962637     0.02600
C1860       C  0.14780015  0.99157655  0.81314756    -0.04200
C1861       C  0.17217318  0.02004318  0.80651088    -0.00400
C1862       C  0.21796350  0.01949665  0.80680214    -0.03000
C1863       C  0.23845372  0.92847842  0.82641628     0.36300
C1864       C  0.15016874  0.04849621  0.79893006     0.39900
C1865       C  0.14610355  0.93097376  0.82641044     0.39000
C1866       C  0.24240071  0.05018676  0.80032610     0.36000
C1867       C  0.29022352  0.92826021  0.80073763     0.36700
C1868       C  0.37901203  0.05196280  0.82722820     0.39900
N1869       N  0.12715234  0.90681463  0.83179232    -0.38200
N1870       N  0.25631551  0.90337761  0.83175258    -0.39700
N1871       N  0.13235147  0.07070473  0.79283403    -0.37500
N1872       N  0.26171616  0.07496362  0.79520485    -0.39900
N1873       N  0.26751767  0.07512283  0.83185692    -0.39700
N1874       N  0.39665028  0.07720154  0.83259230    -0.37300
N1875       N  0.40166754  0.90666707  0.79528579    -0.38300
N1876       N  0.27236708  0.90349669  0.79528548    -0.40000
C1877       C  0.01480684  0.96313605  0.86471050    -0.04900
C1878       C  0.00359512  0.00123386  0.87028828     0.09200
C1879       C  0.99570654  0.03954596  0.86444129    -0.02300
C1880       C  0.00022610  0.04029667  0.85304555    -0.00600
C1881       C  0.01061574  0.00173804  0.84721286    -0.04200
C1882       C  0.01815821  0.96308694  0.85328548     0.02800
C1883       C  0.00245171  0.00160467  0.88242544     0.09700
C1884       C  0.98225279  0.07826700  0.87022702     0.35600
C1885       C  0.03078334  0.92303357  0.84800636     0.39000
C1886       C  0.03904354  0.01596841  0.88829372    -0.04600
C1887       C  0.03801656  0.01728804  0.89971362     0.02600
C1888       C  0.00051198  0.00371583  0.90532999    -0.04200
C1889       C  0.96442349  0.98796076  0.89947713    -0.00400
C1890       C  0.96530515  0.98715257  0.88804692    -0.03000
C1891       C  0.07800192  0.02860278  0.88250878     0.36300
C1892       C  0.92605740  0.97336674  0.90523200     0.39900
C1893       C  0.07596276  0.03146312  0.90571159     0.39000
C1894       C  0.92807551  0.97136594  0.88204167     0.36000
C1895       C  0.02303937  0.92383808  0.87085492     0.36700
C1896       C  0.99465722  0.08144352  0.84753447     0.39900
N1897       N  0.10617797  0.04269328  0.91051211    -0.38200
N1898       N  0.10889191  0.03837015  0.87778962    -0.39700
N1899       N  0.89554114  0.96174579  0.90984523    -0.37500
N1900       N  0.89843165  0.95862924  0.87725694    -0.39900
N1901       N  0.97114096  0.10895916  0.87484050    -0.39700
N1902       N  0.99081982  0.11463217  0.84328226    -0.37300
N1903       N  0.04076706  0.89067892  0.84398064    -0.38300
N1904       N  0.02936851  0.89278373  0.87585950    -0.40000
C1905       C  0.46581661  0.46807362  0.73845133    -0.04900
C1906       C  0.48598238  0.50131050  0.74447989     0.09200
C1907       C  0.50812874  0.53490217  0.73907684    -0.02300
C1908       C  0.51015276  0.53540536  0.72766758    -0.00600
C1909       C  0.49060071  0.50178092  0.72159516    -0.04200
C1910       C  0.46866633  0.46790481  0.72704206     0.02800
C1911       C  0.48507573  0.50045193  0.75658107     0.09700
C1912       C  0.52851376  0.56909007  0.74534502     0.35600
C1913       C  0.45035008  0.43203236  0.72094972     0.39000
C1914       C  0.51775496  0.47821172  0.76230708    -0.04600
C1915       C  0.51715873  0.47724616  0.77372243     0.02600
C1916       C  0.48443823  0.49955878  0.77948414    -0.04200
C1917       C  0.45220074  0.52257056  0.77373253    -0.00400
C1918       C  0.45272661  0.52322161  0.76230379    -0.03000
C1919       C  0.55312562  0.45811345  0.75641353     0.36300
C1920       C  0.41781420  0.54462078  0.77955186     0.39900
C1921       C  0.55112332  0.45446541  0.77953095     0.39000
C1922       C  0.42093494  0.54850969  0.75639642     0.36000
C1923       C  0.44181135  0.43427917  0.74400499     0.36700
C1924       C  0.53099760  0.57143627  0.72220319     0.39900
N1925       N  0.57818853  0.43623170  0.78414859    -0.38200
N1926       N  0.58157176  0.44272007  0.75166920    -0.39700
N1927       N  0.39023510  0.56204310  0.78417818    -0.37500
N1928       N  0.39599917  0.56907828  0.75164823    -0.39900
N1929       N  0.54454984  0.59610803  0.75047457    -0.39700
N1930       N  0.54745334  0.60042516  0.71790292    -0.37300
N1931       N  0.43598740  0.40320557  0.71612872    -0.38300
N1932       N  0.42235948  0.40746522  0.74840639    -0.40000
C1933       C  0.52305122  0.47826079  0.63758123    -0.04900
C1934       C  0.49588522  0.50659726  0.63170901     0.09200
C1935       C  0.46789539  0.53484097  0.63734489    -0.02300
C1936       C  0.46674282  0.53464482  0.64877593    -0.00600
C1937       C  0.49479781  0.50715687  0.65470092    -0.04200
C1938       C  0.52300816  0.47898300  0.64902626     0.02800
C1939       C  0.49540339  0.50606159  0.61955939     0.09700
C1940       C  0.44000821  0.56395519  0.63129803     0.35600
C1941       C  0.55074851  0.44937407  0.65498103     0.39000
C1942       C  0.46796477  0.47699823  0.61397976    -0.04600
C1943       C  0.46560701  0.47789345  0.60254842     0.02600
C1944       C  0.49031475  0.50837839  0.59660628    -0.04200
C1945       C  0.51724982  0.53794611  0.60224223    -0.00400
C1946       C  0.52005625  0.53650666  0.61365216    -0.03000
C1947       C  0.44168953  0.44653772  0.62007037     0.36300
C1948       C  0.54079323  0.57112706  0.59632153     0.39900
C1949       C  0.43871137  0.44650763  0.59693065     0.39000
C1950       C  0.54787860  0.56685635  0.61934317     0.36000
C1951       C  0.55031629  0.44759937  0.63185387     0.36700
C1952       C  0.43684465  0.56309607  0.65440665     0.39900
N1953       N  0.41739240  0.42121484  0.59249856    -0.38200
N1954       N  0.42069783  0.42243138  0.62497749    -0.39700
N1955       N  0.55931899  0.59758735  0.59155111    -0.37500
N1956       N  0.57011734  0.59117907  0.62382943    -0.39900
N1957       N  0.41803132  0.58712190  0.62639187    -0.39700
N1958       N  0.41272058  0.58545686  0.65890613    -0.37300
N1959       N  0.57270248  0.42604073  0.65984943    -0.38300
N1960       N  0.57189161  0.42270820  0.62737901    -0.40000
C1961       C  0.51719872  0.70742231  0.68090490    -0.04900
C1962       C  0.49429089  0.73112897  0.68883212     0.09200
C1963       C  0.46964799  0.70864989  0.69669150    -0.02300
C1964       C  0.46926589  0.66282382  0.69684561    -0.00600
C1965       C  0.49090383  0.63918190  0.68865978    -0.04200
C1966       C  0.51434450  0.66182765  0.68059677     0.02800
C1967       C  0.49690567  0.77974785  0.68894003     0.09700
C1968       C  0.44462756  0.73276322  0.70460966     0.35600
C1969       C  0.53483197  0.63826970  0.67179927     0.39000
C1970       C  0.47618764  0.80421198  0.68076132    -0.04600
C1971       C  0.47962589  0.84979381  0.68068143     0.02600
C1972       C  0.50352896  0.87139864  0.68882193    -0.04200
C1973       C  0.52535900  0.84695870  0.69681701    -0.00400
C1974       C  0.52185458  0.80130822  0.69690471    -0.03000
C1975       C  0.45153183  0.78239185  0.67236101     0.36300
C1976       C  0.55073249  0.86880459  0.70508616     0.39900
C1977       C  0.45992657  0.87450229  0.67196204     0.39000
C1978       C  0.54407956  0.77635780  0.70516965     0.36000
C1979       C  0.54437705  0.73012126  0.67316008     0.36700
C1980       C  0.44907460  0.64012416  0.70581842     0.39900
N1981       N  0.44457755  0.89439480  0.66500554    -0.38200
N1982       N  0.43217976  0.76498921  0.66560499    -0.39700
N1983       N  0.57101888  0.88631393  0.71165387    -0.37500
N1984       N  0.56154082  0.75629924  0.71177469    -0.39900
N1985       N  0.42450364  0.75201911  0.71088193    -0.39700
N1986       N  0.43369093  0.62217432  0.71309646    -0.37300
N1987       N  0.55088029  0.61957377  0.66473542    -0.38300
N1988       N  0.56605566  0.74852684  0.66704959    -0.40000
C1989       C  0.52898290  0.20586060  0.68113084    -0.04900
C1990       C  0.50278368  0.23063462  0.68816519     0.09200
C1991       C  0.47476288  0.20934226  0.69549096    -0.02300
C1992       C  0.47379393  0.16363372  0.69600624    -0.00600
C1993       C  0.50096261  0.13878509  0.68918307    -0.04200
C1994       C  0.52772478  0.16016671  0.68154435     0.02800
C1995       C  0.50339058  0.27922457  0.68764947     0.09700
C1996       C  0.44643745  0.23467196  0.70241192     0.35600
C1997       C  0.55219736  0.13511369  0.67368097     0.39000
C1998       C  0.48013643  0.30108809  0.67945448    -0.04600
C1999       C  0.47821727  0.34683172  0.67936788     0.02600
C2000       C  0.49931064  0.37111696  0.68753769    -0.04200
C2001       C  0.52344255  0.34916700  0.69559506    -0.00400
C2002       C  0.52578810  0.30345881  0.69558543    -0.03000
C2003       C  0.45813043  0.27632115  0.67110497     0.36300
C2004       C  0.54451570  0.37357181  0.70416878     0.39900
C2005       C  0.45551819  0.36887007  0.67067790     0.39000
C2006       C  0.55139358  0.28128698  0.70373626     0.36000
C2007       C  0.55690346  0.22746345  0.67336546     0.36700
C2008       C  0.44503568  0.14227241  0.70362983     0.39900
N2009       N  0.43751644  0.38629365  0.66370584    -0.38200
N2010       N  0.44083757  0.25641279  0.66443241    -0.39700
N2011       N  0.56108106  0.39321876  0.71100388    -0.37500
N2012       N  0.57202122  0.26378488  0.71022618    -0.39900
N2013       N  0.42383417  0.25496407  0.70790165    -0.39700
N2014       N  0.42193818  0.12506775  0.70963790    -0.37300
N2015       N  0.57126420  0.11489776  0.66738683    -0.38300
N2016       N  0.57905571  0.24457806  0.66712783    -0.40000
C2017       C  0.52955940  0.02950692  0.74058244    -0.04900
C2018       C  0.51369782  0.99238382  0.74596588     0.09200
C2019       C  0.49496848  0.95841061  0.73989834    -0.02300
C2020       C  0.49115222  0.96194901  0.72852972    -0.00600
C2021       C  0.50655340  0.99933718  0.72314441    -0.04200
C2022       C  0.52581898  0.03308697  0.72921565     0.02800
C2023       C  0.51431321  0.99034718  0.75809548     0.09700
C2024       C  0.48011537  0.91956963  0.74537537     0.35600
C2025       C  0.54041371  0.07218835  0.72379302     0.39000
C2026       C  0.47800961  0.00497652  0.76401440    -0.04600
C2027       C  0.47872907  0.00480808  0.77542931     0.02600
C2028       C  0.51578481  0.99006418  0.78102166    -0.04200
C2029       C  0.55178554  0.97437266  0.77512961    -0.00400
C2030       C  0.55104135  0.97457768  0.76367639    -0.03000
C2031       C  0.43983911  0.02026620  0.75832637     0.36300
C2032       C  0.58997788  0.95915435  0.78083873     0.39900
C2033       C  0.44085129  0.01879866  0.78146726     0.39000
C2034       C  0.58804050  0.95875984  0.75761129     0.36000
C2035       C  0.54981975  0.06395124  0.74678167     0.36700
C2036       C  0.47221817  0.92665186  0.72236411     0.39900
N2037       N  0.41076483  0.02971640  0.78635525    -0.38200
N2038       N  0.40934045  0.03237136  0.75378839    -0.39700
N2039       N  0.62046996  0.94705444  0.78538834    -0.37500
N2040       N  0.61754635  0.94607251  0.75277018    -0.39900
N2041       N  0.46848081  0.88847446  0.74973776    -0.39700
N2042       N  0.45707057  0.89839006  0.71748662    -0.37300
N2043       N  0.55175402  0.10344824  0.71945225    -0.38300
N2044       N  0.56620829  0.09121064  0.75176255    -0.40000
C2045       C  0.47959265  0.98154687  0.61549458    -0.04900
C2046       C  0.50167761  0.01472318  0.62112977     0.09200
C2047       C  0.52294288  0.04778142  0.61524942    -0.02300
C2048       C  0.52166395  0.04789078  0.60380363    -0.00600
C2049       C  0.49871642  0.01517127  0.59818210    -0.04200
C2050       C  0.47810572  0.98174582  0.60407598     0.02800
C2051       C  0.50275226  0.01426206  0.63327993     0.09700
C2052       C  0.54653461  0.08137390  0.62099208     0.35600
C2053       C  0.45712714  0.94633028  0.59837076     0.39000
C2054       C  0.52967868  0.98459155  0.63879455    -0.04600
C2055       C  0.52885125  0.98222933  0.65020548     0.02600
C2056       C  0.50156074  0.01005117  0.65624313    -0.04200
C2057       C  0.47493321  0.04013555  0.65070920    -0.00400
C2058       C  0.47520545  0.04184581  0.63926896    -0.03000
C2059       C  0.55755105  0.95568633  0.63268064     0.36300
C2060       C  0.44809257  0.07019611  0.65676756     0.39900
C2061       C  0.55482886  0.94979400  0.65570861     0.39000
C2062       C  0.44638220  0.07127378  0.63360668     0.36000
C2063       C  0.45899415  0.94674050  0.62149536     0.36700
C2064       C  0.54356710  0.08190975  0.59780112     0.39900
N2065       N  0.57533715  0.92392036  0.66014984    -0.38200
N2066       N  0.57950641  0.93237888  0.62780415    -0.39700
N2067       N  0.42679276  0.09423966  0.66160688    -0.37500
N2068       N  0.42332338  0.09452175  0.62904084    -0.39900
N2069       N  0.56534748  0.10818205  0.62557496    -0.39700
N2070       N  0.56112734  0.10878640  0.59294604    -0.37300
N2071       N  0.44070377  0.91798125  0.59379450    -0.38300
N2072       N  0.44306987  0.91887867  0.62635001    -0.40000
C2073       C  0.96053174  0.47521668  0.73555597    -0.04900
C2074       C  0.99748564  0.48865093  0.74137227     0.09200
C2075       C  0.03493722  0.50142478  0.73569427    -0.02300
C2076       C  0.03598314  0.49993834  0.72425777    -0.00600
C2077       C  0.99865857  0.48707240  0.71824428    -0.04200
C2078       C  0.96071201  0.47493832  0.72410534     0.02800
C2079       C  0.99607289  0.49187644  0.75349758     0.09700
C2080       C  0.07211359  0.51765026  0.74168562     0.35600
C2081       C  0.92124299  0.46215678  0.71854179     0.39000
C2082       C  0.01685543  0.46063502  0.76002012    -0.04600
C2083       C  0.01561427  0.46413433  0.77142389     0.02600
C2084       C  0.99258337  0.49850461  0.77646396    -0.04200
C2085       C  0.97214691  0.53004479  0.76983125    -0.00400
C2086       C  0.97459763  0.52701434  0.75843860    -0.03000
C2087       C  0.04038660  0.42527496  0.75497352     0.36300
C2088       C  0.94782589  0.56547040  0.77461296     0.39900
C2089       C  0.03988916  0.43327390  0.77791354     0.39000
C2090       C  0.95596393  0.56079045  0.75170756     0.36000
C2091       C  0.92178341  0.46229045  0.74142074     0.36700
C2092       C  0.07573514  0.51272668  0.71884685     0.39900
N2093       N  0.05929127  0.40892515  0.78313161    -0.38200
N2094       N  0.05949670  0.39718910  0.75101325    -0.39700
N2095       N  0.92847140  0.59388670  0.77834789    -0.37500
N2096       N  0.94155989  0.58771985  0.74627999    -0.39900
N2097       N  0.10157426  0.53084094  0.74646408    -0.39700
N2098       N  0.10784292  0.52252685  0.71466967    -0.37300
N2099       N  0.88926499  0.45244234  0.71427893    -0.38300
N2100       N  0.89078801  0.45216794  0.74605102    -0.40000
C2101       C  0.97535401  0.45699909  0.63345251    -0.04900
C2102       C  0.00389570  0.48500829  0.62787862     0.09200
C2103       C  0.03145038  0.51275627  0.63383112    -0.02300
C2104       C  0.03011955  0.51297243  0.64526496    -0.00600
C2105       C  0.00168911  0.48482313  0.65088687    -0.04200
C2106       C  0.97397939  0.45711486  0.64489636     0.02800
C2107       C  0.00450406  0.48590941  0.61571946     0.09700
C2108       C  0.06158435  0.54081605  0.62814024     0.35600
C2109       C  0.94451459  0.42804211  0.65048637     0.39000
C2110       C  0.98484367  0.52054817  0.61007683    -0.04600
C2111       C  0.98645798  0.52214861  0.59865766     0.02600
C2112       C  0.00607248  0.48812807  0.59276877    -0.04200
C2113       C  0.02512528  0.45315286  0.59839243    -0.00400
C2114       C  0.02506006  0.45246308  0.60982935    -0.03000
C2115       C  0.96248962  0.55434269  0.61603961     0.36300
C2116       C  0.04311443  0.41694182  0.59238841     0.39900
C2117       C  0.96909380  0.55949938  0.59298155     0.39000
C2118       C  0.04615491  0.41731434  0.61556166     0.36000
C2119       C  0.94777519  0.42758824  0.62737969     0.36700
C2120       C  0.05670973  0.54363667  0.65122672     0.39900
N2121       N  0.95555617  0.58945436  0.58847189    -0.38200
N2122       N  0.94452121  0.58121941  0.62078551    -0.39700
N2123       N  0.05699125  0.38798226  0.58754897    -0.37500
N2124       N  0.06299911  0.38928988  0.62014258    -0.39900
N2125       N  0.08560922  0.56305378  0.62356470    -0.39700
N2126       N  0.07765865  0.56819552  0.65601095    -0.37300
N2127       N  0.92087309  0.40501649  0.65494475    -0.38300
N2128       N  0.92616615  0.40382438  0.62253012    -0.40000
C2129       C  0.03795203  0.68887912  0.68922629    -0.04900
C2130       C  0.00698122  0.71156863  0.68306469     0.09200
C2131       C  0.97772571  0.68841161  0.67645997    -0.02300
C2132       C  0.97802410  0.64264498  0.67644284    -0.00600
C2133       C  0.00672945  0.61961210  0.68332309    -0.04200
C2134       C  0.03733368  0.64319682  0.68956288     0.02800
C2135       C  0.00477127  0.75994854  0.68379848     0.09700
C2136       C  0.94760045  0.71183905  0.66959396     0.35600
C2137       C  0.06749019  0.62107426  0.69665607     0.39000
C2138       C  0.02365180  0.78596742  0.67568393    -0.04600
C2139       C  0.02276848  0.83153598  0.67660742     0.02600
C2140       C  0.00410636  0.85143857  0.68582166    -0.04200
C2141       C  0.98475056  0.82528468  0.69388781    -0.00400
C2142       C  0.98527318  0.77970669  0.69289466    -0.03000
C2143       C  0.04529083  0.76565913  0.66656798     0.36300
C2144       C  0.96556280  0.84493104  0.70341628     0.39900
C2145       C  0.04000677  0.85797628  0.66789453     0.39000
C2146       C  0.96694812  0.75290005  0.70141096     0.36000
C2147       C  0.07088547  0.71291216  0.69511871     0.36700
C2148       C  0.94997636  0.61943774  0.66898299     0.39900
N2149       N  0.05351227  0.87895276  0.66089799    -0.38200
N2150       N  0.06282673  0.74931645  0.65936047    -0.39700
N2151       N  0.95015573  0.85981571  0.71110466    -0.37500
N2152       N  0.95277836  0.73145973  0.70823802    -0.39900
N2153       N  0.92383174  0.73058039  0.66406839    -0.39700
N2154       N  0.92786344  0.60104523  0.66295616    -0.37300
N2155       N  0.09197105  0.60438628  0.70238940    -0.38300
N2156       N  0.09727417  0.73235867  0.69968247    -0.40000
C2157       C  0.02992374  0.28219572  0.67962557    -0.04900
C2158       C  0.99829343  0.25914777  0.68551005     0.09200
C2159       C  0.96540476  0.28204405  0.69102315    -0.02300
C2160       C  0.96431769  0.32782924  0.69069916    -0.00600
C2161       C  0.99608965  0.35118925  0.68477997    -0.04200
C2162       C  0.02851149  0.32779973  0.67909485     0.02800
C2163       C  0.00037683  0.21064935  0.68599913     0.09700
C2164       C  0.93306659  0.25842467  0.69720917     0.35600
C2165       C  0.05999958  0.35037007  0.67241181     0.39000
C2166       C  0.01667461  0.18992568  0.69533447    -0.04600
C2167       C  0.01975556  0.14431069  0.69571867     0.02600
C2168       C  0.00716096  0.11909181  0.68669223    -0.04200
C2169       C  0.99145280  0.13993234  0.67728430    -0.00400
C2170       C  0.98808656  0.18551311  0.67693988    -0.03000
C2171       C  0.03080366  0.21578656  0.70450483     0.36300
C2172       C  0.97928101  0.11445626  0.66787201     0.39900
C2173       C  0.03436688  0.12361941  0.70558925     0.39000
C2174       C  0.97256213  0.20673498  0.66719854     0.36000
C2175       C  0.06459345  0.25870152  0.67427313     0.36700
C2176       C  0.93117541  0.35052482  0.69679424     0.39900
N2177       N  0.04577250  0.10830003  0.71364329    -0.38200
N2178       N  0.04206447  0.23657128  0.71178606    -0.39700
N2179       N  0.96953311  0.09425711  0.66035562    -0.37500
N2180       N  0.96059130  0.22379501  0.65940858    -0.39900
N2181       N  0.90737048  0.23981225  0.70221237    -0.39700
N2182       N  0.90444193  0.36805517  0.70168535    -0.37300
N2183       N  0.08504684  0.36843057  0.66708560    -0.38300
N2184       N  0.09212904  0.23964060  0.67006544    -0.40000
C2185       C  0.04765272  0.00901968  0.73802479    -0.04900
C2186       C  0.01272095  0.99337497  0.74426976     0.09200
C2187       C  0.97626970  0.97570336  0.73896194    -0.02300
C2188       C  0.97425578  0.97428393  0.72750924    -0.00600
C2189       C  0.00987128  0.98866656  0.72112467    -0.04200
C2190       C  0.04689011  0.00572897  0.72658484     0.02800
C2191       C  0.01387294  0.99601340  0.75646624     0.09700
C2192       C  0.94068657  0.95871116  0.74538109     0.35600
C2193       C  0.08426658  0.02108738  0.72054360     0.39000
C2194       C  0.99081897  0.02890245  0.76194148    -0.04600
C2195       C  0.99077964  0.03082135  0.77340671     0.02600
C2196       C  0.01403214  0.99974138  0.77956993    -0.04200
C2197       C  0.03726471  0.96688578  0.77400966    -0.00400
C2198       C  0.03698662  0.96499092  0.76255868    -0.03000
C2199       C  0.96655030  0.06044747  0.75568291     0.36300
C2200       C  0.06254684  0.93545001  0.78005575     0.39900
C2201       C  0.96537662  0.06398031  0.77880041     0.39000
C2202       C  0.06003545  0.93056917  0.75700411     0.36000
C2203       C  0.08416831  0.02954717  0.74340343     0.36700
C2204       C  0.93525364  0.95754208  0.72242886     0.39900
N2205       N  0.94502355  0.09051423  0.78303558    -0.38200
N2206       N  0.94716924  0.08520696  0.75058649    -0.39700
N2207       N  0.08255728  0.91053715  0.78495243    -0.37500
N2208       N  0.07833492  0.90305606  0.75258386    -0.39900
N2209       N  0.91247943  0.94511883  0.75053893    -0.39700
N2210       N  0.90383081  0.94461769  0.71845031    -0.37300
N2211       N  0.11414626  0.03335637  0.71577084    -0.38300
N2212       N  0.11319354  0.04625201  0.74763269    -0.40000
C2213       C  0.98006967  0.95247050  0.63657162    -0.04900
C2214       C  0.00674515  0.98098264  0.63062130     0.09200
C2215       C  0.03391020  0.01031877  0.63617128    -0.02300
C2216       C  0.03386195  0.01179606  0.64761446    -0.00600
C2217       C  0.00711932  0.98323933  0.65364336    -0.04200
C2218       C  0.98060688  0.95318045  0.64802303     0.02800
C2219       C  0.00428464  0.98233097  0.61848791     0.09700
C2220       C  0.06118527  0.03967636  0.63000451     0.35600
C2221       C  0.95459217  0.92215314  0.65401001     0.39000
C2222       C  0.97630118  0.01218085  0.61337817    -0.04600
C2223       C  0.97579986  0.01591316  0.60197844     0.02600
C2224       C  0.00189465  0.98829285  0.59557153    -0.04200
C2225       C  0.02875643  0.95733249  0.60069888    -0.00400
C2226       C  0.03083431  0.95520457  0.61210785    -0.03000
C2227       C  0.94821507  0.03929664  0.61992905     0.36300
C2228       C  0.05302072  0.92646064  0.59420822     0.39900
C2229       C  0.94984489  0.04947078  0.59691704     0.39000
C2230       C  0.06087511  0.92557438  0.61726522     0.36000
C2231       C  0.95131974  0.92305000  0.63086868     0.36700
C2232       C  0.05964476  0.04439672  0.65312471     0.39900
N2233       N  0.92935783  0.07659498  0.59296200    -0.38200
N2234       N  0.92578273  0.06061984  0.62521520    -0.39700
N2235       N  0.07185263  0.90185425  0.58892796    -0.37500
N2236       N  0.08530533  0.90207527  0.62126305    -0.39900
N2237       N  0.08267815  0.06286279  0.62495728    -0.39700
N2238       N  0.07987135  0.07072996  0.65749565    -0.37300
N2239       N  0.93405061  0.89735939  0.65882204    -0.38300
N2240       N  0.92819051  0.89980112  0.62630814    -0.40000
loop_ 
_geom_bond_atom_site_label_1 
_geom_bond_atom_site_label_2 
_geom_bond_distance 
_geom_bond_site_symmetry_2 
_ccdc_geom_bond_type 
O1           Cu9   2.022       .  S
O1           C11   1.280       .  A
O2           Cu9   2.029   1_545  S
O2           C12   1.280       .  A
O3           Cu9   2.014       .  S
O3           C13   1.278       .  A
O4           Cu9   2.014       .  S
O4           C14   1.278       .  A
O5          Cu10   2.027       .  S
O5           C14   1.281   1_655  A
O6          Cu10   2.031       .  S
O6           C13   1.281   1_655  A
O7          Cu10   2.004   1_545  S
O7           C12   1.276   1_655  A
O8          Cu10   2.012       .  S
O8           C11   1.277   1_655  A
Cu9         Cu10   2.367   1_455  S
C11        C2140   1.487       .  S
C12        C2168   1.484       .  S
C13        C2189   1.512       .  S
C14        C2217   1.496       .  S
O15         Cu23   2.013       .  S
O15          C25   1.278   1_655  A
O16         Cu23   2.016       .  S
O16          C26   1.278       .  A
O17         Cu23   2.018       .  S
O17          C27   1.280   1_655  A
O18         Cu23   2.023       .  S
O18          C28   1.279       .  A
O19         Cu24   2.001       .  S
O19          C28   1.277   1_455  A
O20         Cu24   2.011       .  S
O20          C27   1.277       .  A
O21         Cu24   2.015       .  S
O21          C26   1.279   1_455  A
O22         Cu24   2.017       .  S
O22          C25   1.279       .  A
Cu23        Cu24   2.365   1_655  S
C25        C2105   1.492       .  S
C26        C2077   1.510       .  S
C27        C2133   1.494       .  S
C28        C2161   1.496       .  S
O29         Cu37   2.003   1_565  S
O29          C39   1.277       .  A
O30         Cu37   2.009       .  S
O30          C40   1.278       .  A
O31         Cu37   2.019       .  S
O31          C41   1.279       .  A
O32         Cu37   2.025       .  S
O32          C42   1.280       .  A
O33         Cu38   2.005       .  S
O33          C42   1.277       .  A
O34         Cu38   2.005       .  S
O34          C41   1.277       .  A
O35         Cu38   2.007       .  S
O35          C40   1.278       .  A
O36         Cu38   2.016   1_565  S
O36          C39   1.278       .  A
Cu37        Cu38   2.374       .  S
C39        C1972   1.484       .  S
C40        C1993   1.489       .  S
C41        C2056   1.489       .  S
C42        C2021   1.485   1_545  S
O43         Cu51   2.013       .  S
O43          C53   1.279       .  A
O44         Cu51   2.015       .  S
O44          C54   1.279       .  A
O45         Cu51   2.007       .  S
O45          C55   1.277       .  A
O46         Cu51   2.002       .  S
O46          C56   1.276       .  A
O47         Cu52   2.032       .  S
O47          C56   1.281       .  A
O48         Cu52   2.026       .  S
O48          C55   1.280       .  A
O49         Cu52   2.006       .  S
O49          C54   1.277       .  A
O50         Cu52   2.008       .  S
O50          C53   1.277       .  A
Cu51        Cu52   2.373       .  S
C53        C1937   1.490       .  S
C54        C1909   1.483       .  S
C55        C2000   1.489       .  S
C56        C1965   1.488       .  S
O57         Cu65   2.020       .  S
O57          C67   1.279       .  A
O58         Cu65   2.003   1_655  S
O58          C68   1.278   1_565  A
O59         Cu65   2.017       .  S
O59          C69   1.279   1_565  A
O60         Cu65   2.018       .  S
O60          C70   1.278   1_565  A
O61         Cu66   2.026       .  S
O61          C70   1.280       .  A
O62         Cu66   2.029       .  S
O62          C69   1.280       .  A
O63         Cu66   2.009   1_655  S
O63          C68   1.277       .  A
O64         Cu66   2.011       .  S
O64          C67   1.279   1_545  A
Cu65        Cu66   2.364   1_565  S
C67        C1860   1.497       .  S
C68        C1832   1.486       .  S
C69        C2196   1.502   1_545  S
C70        C1881   1.515       .  S
O71         Cu79   2.005       .  S
O71          C81   1.278       .  A
O72         Cu79   2.003       .  S
O72          C82   1.277       .  A
O73         Cu79   2.004       .  S
O73          C83   1.277       .  A
O74         Cu79   2.011   1_455  S
O74          C84   1.279       .  A
O75         Cu80   2.017   1_455  S
O75          C84   1.279       .  A
O76         Cu80   2.019       .  S
O76          C83   1.280       .  A
O77         Cu80   2.012       .  S
O77          C82   1.277       .  A
O78         Cu80   2.013       .  S
O78          C81   1.278       .  A
Cu79        Cu80   2.369       .  S
C81        C2084   1.498       .  S
C82        C1797   1.479       .  S
C83        C1741   1.492       .  S
C84        C1776   1.498       .  S
O85         Cu93   2.025       .  S
O85          C95   1.280       .  A
O86         Cu93   2.014       .  S
O86          C96   1.279   1_565  A
O87         Cu93   2.013       .  S
O87          C97   1.278   1_565  A
O88         Cu93   2.013       .  S
O88          C98   1.277       .  A
O89         Cu94   2.007       .  S
O89          C98   1.278   1_545  A
O90         Cu94   2.013       .  S
O90          C97   1.277       .  A
O91         Cu94   2.000       .  S
O91          C96   1.276       .  A
O92         Cu94   2.007       .  S
O92          C95   1.278   1_545  A
Cu93        Cu94   2.374   1_565  S
C95        C1853   1.497       .  S
C96        C1825   1.483       .  S
C97        C1713   1.481       .  S
C98        C2028   1.481       .  S
O99        Cu107   2.014       .  S
O99         C109   1.279       .  A
O100       Cu107   2.018       .  S
O100        C110   1.279       .  A
O101       Cu107   2.007       .  S
O101        C111   1.277       .  A
O102       Cu107   2.005       .  S
O102        C112   1.277       .  A
O103       Cu108   2.012       .  S
O103        C112   1.278       .  A
O104       Cu108   2.007       .  S
O104        C111   1.278       .  A
O105       Cu108   2.007       .  S
O105        C110   1.278       .  A
O106       Cu108   2.011       .  S
O106        C109   1.277       .  A
Cu107      Cu108   2.368       .  S
C109       C1769   1.485       .  S
C110       C1748   1.488       .  S
C111       C1692   1.507       .  S
C112       C1916   1.482       .  S
O113       Cu121   1.999       .  S
O113        C123   1.276       .  A
O114       Cu121   2.005       .  S
O114        C124   1.277       .  A
O115       Cu121   2.007   1_565  S
O115        C125   1.278       .  A
O116       Cu121   2.018       .  S
O116        C126   1.279       .  A
O117       Cu122   2.012       .  S
O117        C126   1.278   1_655  A
O118       Cu122   2.008   1_565  S
O118        C125   1.277   1_655  A
O119       Cu122   2.013       .  S
O119        C124   1.279   1_655  A
O120       Cu122   2.007       .  S
O120        C123   1.278   1_655  A
Cu121      Cu122   2.373   1_455  S
C123       C1629   1.481   1_455  S
C124       C1657   1.493       .  S
C125       C1573   1.486       .  S
C126       C1601   1.488       .  S
O127       Cu135   2.003       .  S
O127        C137   1.276       .  A
O128       Cu135   1.994       .  S
O128        C138   1.275       .  A
O129       Cu135   2.014       .  S
O129        C139   1.279       .  A
O130       Cu135   2.015       .  S
O130        C140   1.279       .  A
O131       Cu136   2.006       .  S
O131        C140   1.278   1_655  A
O132       Cu136   2.007       .  S
O132        C139   1.277   1_655  A
O133       Cu136   2.011       .  S
O133        C138   1.279   1_655  A
O134       Cu136   2.012       .  S
O134        C137   1.278   1_655  A
Cu135      Cu136   2.374   1_455  S
C137       C1517   1.475       .  S
C138       C1545   1.477       .  S
C139       C1608   1.490       .  S
C140       C1580   1.495       .  S
O141       Cu149   2.007       .  S
O141        C151   1.278       .  A
O142       Cu149   2.005   1_545  S
O142        C152   1.277       .  A
O143       Cu149   2.017       .  S
O143        C153   1.279   1_565  A
O144       Cu149   2.010       .  S
O144        C154   1.278       .  A
O145       Cu150   2.003       .  S
O145        C154   1.278   1_545  A
O146       Cu150   2.014       .  S
O146        C153   1.279       .  A
O147       Cu150   2.010       .  S
O147        C152   1.278       .  A
O148       Cu150   2.018   1_565  S
O148        C151   1.279       .  A
Cu149      Cu150   2.371   1_565  S
C151       C1405   1.493       .  S
C152       C1433   1.485       .  S
C153       C1489   1.492       .  S
C154       C1461   1.487       .  S
O155       Cu163   2.003       .  S
O155        C165   1.277       .  A
O156       Cu163   2.005       .  S
O156        C166   1.277       .  A
O157       Cu163   2.003       .  S
O157        C167   1.277       .  A
O158       Cu163   2.004       .  S
O158        C168   1.277       .  A
O159       Cu164   2.015       .  S
O159        C168   1.278       .  A
O160       Cu164   2.017       .  S
O160        C167   1.279       .  A
O161       Cu164   2.030       .  S
O161        C166   1.280       .  A
O162       Cu164   2.021       .  S
O162        C165   1.280       .  A
Cu163      Cu164   2.366       .  S
C165       C1440   1.492       .  S
C166       C1412   1.492       .  S
C167       C1377   1.484       .  S
C168       C1349   1.509       .  S
O169       Cu177   2.020       .  S
O169        C179   1.279       .  A
O170       Cu177   2.009   1_565  S
O170        C180   1.278   1_655  A
O171       Cu177   2.016       .  S
O171        C181   1.278       .  A
O172       Cu177   2.009       .  S
O172        C182   1.279   1_655  A
O173       Cu178   1.993       .  S
O173        C182   1.275       .  A
O174       Cu178   1.993       .  S
O174        C181   1.276   1_455  A
O175       Cu178   2.020   1_565  S
O175        C180   1.279       .  A
O176       Cu178   2.018       .  S
O176        C179   1.279   1_455  A
Cu177      Cu178   2.367   1_655  S
C179       C1293   1.490       .  S
C180       C1265   1.495       .  S
C181       C1328   1.503   1_545  S
C182       C1664   1.478       .  S
O183       Cu191   2.008       .  S
O183        C193   1.278       .  A
O184       Cu191   2.006       .  S
O184        C194   1.277       .  A
O185       Cu191   2.015       .  S
O185        C195   1.278       .  A
O186       Cu191   2.012       .  S
O186        C196   1.279   1_655  A
O187       Cu192   2.009       .  S
O187        C196   1.278       .  A
O188       Cu192   2.012       .  S
O188        C195   1.278   1_455  A
O189       Cu192   2.004       .  S
O189        C194   1.278   1_455  A
O190       Cu192   2.000       .  S
O190        C193   1.277   1_455  A
Cu191      Cu192   2.371   1_655  S
C193       C1272   1.486   1_655  S
C194       C1300   1.494       .  S
C195       C1244   1.483       .  S
C196       C1552   1.491       .  S
O197       Cu205   2.025   1_545  S
O197        C207   1.279       .  A
O198       Cu205   2.014       .  S
O198        C208   1.279       .  A
O199       Cu205   2.013   1_545  S
O199        C209   1.279       .  A
O200       Cu205   2.015       .  S
O200        C210   1.279   1_565  A
O201       Cu206   2.003       .  S
O201        C210   1.277       .  A
O202       Cu206   1.999       .  S
O202        C209   1.277       .  A
O203       Cu206   2.015   1_565  S
O203        C208   1.278       .  A
O204       Cu206   2.004       .  S
O204        C207   1.276       .  A
Cu205      Cu206   2.367   1_565  S
C207       C1181   1.484       .  S
C208       C1153   1.490       .  S
C209       C1496   1.494       .  S
C210       C1209   1.505       .  S
O211       Cu219   2.013       .  S
O211        C221   1.278       .  A
O212       Cu219   2.009       .  S
O212        C222   1.277       .  A
O213       Cu219   2.018       .  S
O213        C223   1.280       .  A
O214       Cu219   2.018       .  S
O214        C224   1.279       .  A
O215       Cu220   2.004       .  S
O215        C224   1.278       .  A
O216       Cu220   2.009       .  S
O216        C223   1.278       .  A
O217       Cu220   2.013       .  S
O217        C222   1.278       .  A
O218       Cu220   2.019       .  S
O218        C221   1.280       .  A
Cu219      Cu220   2.373       .  S
C221       C1384   1.491       .  S
C222       C1132   1.479       .  S
C223       C1160   1.492       .  S
C224       C1188   1.489       .  S
O225       Cu233   2.003       .  S
O225        C235   1.277       .  A
O226       Cu233   2.013       .  S
O226        C236   1.279       .  A
O227       Cu233   2.005       .  S
O227        C237   1.278   1_545  A
O228       Cu233   2.006   1_655  S
O228        C238   1.277       .  A
O229       Cu234   2.013   1_655  S
O229        C238   1.279   1_565  A
O230       Cu234   2.014       .  S
O230        C237   1.279       .  A
O231       Cu234   2.007       .  S
O231        C236   1.277   1_565  A
O232       Cu234   1.996       .  S
O232        C235   1.276   1_565  A
Cu233      Cu234   2.375   1_545  S
C235       C1069   1.473       .  S
C236       C1104   1.484   1_445  S
C237       C1041   1.488       .  S
C238       C1020   1.487       .  S
O239       Cu247   2.022       .  S
O239        C249   1.280       .  A
O240       Cu247   2.019   1_655  S
O240        C250   1.280       .  A
O241       Cu247   2.009       .  S
O241        C251   1.277       .  A
O242       Cu247   2.004       .  S
O242        C252   1.277       .  A
O243       Cu248   2.019       .  S
O243        C252   1.279       .  A
O244       Cu248   2.022       .  S
O244        C251   1.280       .  A
O245       Cu248   1.999   1_655  S
O245        C250   1.277       .  A
O246       Cu248   2.009       .  S
O246        C249   1.278       .  A
Cu247      Cu248   2.371       .  S
C249        C936   1.498       .  S
C250        C901   1.491       .  S
C251        C957   1.490       .  S
C252        C985   1.487       .  S
O253       Cu261   1.995       .  S
O253        C263   1.276   1_565  A
O254       Cu261   2.011       .  S
O254        C264   1.278   1_565  A
O255       Cu261   2.016       .  S
O255        C265   1.279   1_565  A
O256       Cu261   2.009       .  S
O256        C266   1.277   1_565  A
O257       Cu262   2.020       .  S
O257        C266   1.279       .  A
O258       Cu262   2.008       .  S
O258        C265   1.278       .  A
O259       Cu262   2.021       .  S
O259        C264   1.279       .  A
O260       Cu262   2.011       .  S
O260        C263   1.279       .  A
Cu261      Cu262   2.365   1_565  S
C263        C852   1.490       .  S
C264        C880   1.514       .  S
C265       C1048   1.497   1_545  S
C266       C1013   1.487       .  S
O267       Cu275   2.014       .  S
O267        C277   1.279       .  A
O268       Cu275   2.010       .  S
O268        C278   1.279       .  A
O269       Cu275   2.000       .  S
O269        C279   1.276       .  A
O270       Cu275   2.007       .  S
O270        C280   1.277       .  A
O271       Cu276   2.022       .  S
O271        C280   1.281       .  A
O272       Cu276   2.023       .  S
O272        C279   1.280       .  A
O273       Cu276   2.010       .  S
O273        C278   1.277       .  A
O274       Cu276   2.004       .  S
O274        C277   1.276       .  A
Cu275      Cu276   2.374       .  S
C277        C929   1.482       .  S
C278        C908   1.486       .  S
C279        C824   1.483       .  S
C280        C789   1.491       .  S
O281       Cu289   2.016       .  S
O281        C291   1.279       .  A
O282       Cu289   2.016       .  S
O282        C292   1.279       .  A
O283       Cu289   2.015       .  S
O283        C293   1.278       .  A
O284       Cu289   2.011   1_455  S
O284        C294   1.277       .  A
O285       Cu290   2.010   1_455  S
O285        C294   1.279   1_565  A
O286       Cu290   2.019       .  S
O286        C293   1.279   1_565  A
O287       Cu290   2.004       .  S
O287        C292   1.276   1_565  A
O288       Cu290   2.003       .  S
O288        C291   1.277   1_565  A
Cu289      Cu290   2.367   1_545  S
C291       C1636   1.485       .  S
C292       C1097   1.510       .  S
C293        C733   1.489       .  S
C294        C768   1.489       .  S
O295       Cu303   2.014       .  S
O295        C305   1.279       .  A
O296       Cu303   2.018   1_655  S
O296        C306   1.278       .  A
O297       Cu303   2.007       .  S
O297        C307   1.278       .  A
O298       Cu303   2.005       .  S
O298        C308   1.276       .  A
O299       Cu304   2.008       .  S
O299        C308   1.277       .  A
O300       Cu304   2.005       .  S
O300        C307   1.278       .  A
O301       Cu304   2.022   1_655  S
O301        C306   1.280       .  A
O302       Cu304   2.026       .  S
O302        C305   1.280       .  A
Cu303      Cu304   2.372       .  S
C305        C705   1.497       .  S
C306        C677   1.497       .  S
C307        C992   1.485       .  S
C308       C1524   1.475       .  S
O309       Cu317   2.008       .  S
O309        C319   1.278   1_545  A
O310       Cu317   2.004       .  S
O310        C320   1.278   1_545  A
O311       Cu317   2.020       .  S
O311        C321   1.279   1_545  A
O312       Cu317   2.014       .  S
O312        C322   1.278   1_545  A
O313       Cu318   2.013       .  S
O313        C322   1.278       .  A
O314       Cu318   2.014       .  S
O314        C321   1.278       .  A
O315       Cu318   2.013       .  S
O315        C320   1.278       .  A
O316       Cu318   2.014       .  S
O316        C319   1.278       .  A
Cu317      Cu318   2.368   1_545  S
C319        C761   1.486       .  S
C320        C740   1.487       .  S
C321        C873   1.486       .  S
C322       C1468   1.509       .  S
O323       Cu331   2.009       .  S
O323        C333   1.278       .  A
O324       Cu331   2.015       .  S
O324        C334   1.279       .  A
O325       Cu331   2.015       .  S
O325        C335   1.278       .  A
O326       Cu331   2.009       .  S
O326        C336   1.278       .  A
O327       Cu332   2.008       .  S
O327        C336   1.277       .  A
O328       Cu332   1.996       .  S
O328        C335   1.276       .  A
O329       Cu332   1.998       .  S
O329        C334   1.276       .  A
O330       Cu332   1.998       .  S
O330        C333   1.277       .  A
Cu331      Cu332   2.369       .  S
C333        C817   1.484       .  S
C334       C1356   1.510       .  S
C335        C712   1.482       .  S
C336        C684   1.482       .  S
O337       Cu345   2.023       .  S
O337        C347   1.280   1_455  A
O338       Cu345   2.019       .  S
O338        C348   1.279   1_455  A
O339       Cu345   2.010   1_655  S
O339        C349   1.277       .  A
O340       Cu345   2.001       .  S
O340        C350   1.276       .  A
O341       Cu346   2.023   1_455  S
O341        C350   1.281   1_565  A
O342       Cu346   2.014       .  S
O342        C349   1.279   1_565  A
O343       Cu346   2.001       .  S
O343        C348   1.276   1_565  A
O344       Cu346   1.993       .  S
O344        C347   1.275   1_565  A
Cu345      Cu346   2.370   1_445  S
C347       C1076   1.504       .  S
C348       C1888   1.480   1_655  S
C349        C628   1.485       .  S
C350        C649   1.491       .  S
O351       Cu359   2.024       .  S
O351        C361   1.281       .  A
O352       Cu359   2.018   1_455  S
O352        C362   1.279   1_455  A
O353       Cu359   2.016       .  S
O353        C363   1.277       .  A
O354       Cu359   2.017   1_455  S
O354        C364   1.278       .  A
O355       Cu360   2.021   1_455  S
O355        C364   1.279       .  A
O356       Cu360   2.027       .  S
O356        C363   1.280       .  A
O357       Cu360   2.005       .  S
O357        C362   1.277       .  A
O358       Cu360   2.012       .  S
O358        C361   1.277       .  A
Cu359      Cu360   2.366       .  S
C361       C1804   1.512       .  S
C362        C964   1.491   1_655  S
C363        C565   1.492       .  S
C364        C600   1.493       .  S
O365       Cu373   2.007       .  S
O365        C375   1.278   1_565  A
O366       Cu373   2.014       .  S
O366        C376   1.279   1_565  A
O367       Cu373   2.021       .  S
O367        C377   1.279   1_565  A
O368       Cu373   2.009       .  S
O368        C378   1.277   1_565  A
O369       Cu374   2.006       .  S
O369        C378   1.277       .  A
O370       Cu374   2.022       .  S
O370        C377   1.280       .  A
O371       Cu374   2.019       .  S
O371        C376   1.279       .  A
O372       Cu374   2.010       .  S
O372        C375   1.278       .  A
Cu373      Cu374   2.366   1_565  S
C375        C621   1.486       .  S
C376        C656   1.497       .  S
C377       C1720   1.516       .  S
C378        C845   1.481       .  S
O379       Cu387   1.997       .  S
O379        C389   1.275       .  A
O380       Cu387   2.002       .  S
O380        C390   1.276       .  A
O381       Cu387   2.020       .  S
O381        C391   1.281       .  A
O382       Cu387   2.018       .  S
O382        C392   1.280       .  A
O383       Cu388   2.010       .  S
O383        C392   1.278       .  A
O384       Cu388   2.021       .  S
O384        C391   1.278       .  A
O385       Cu388   2.020       .  S
O385        C390   1.280       .  A
O386       Cu388   2.016       .  S
O386        C389   1.279       .  A
Cu387      Cu388   2.373       .  S
C389       C1685   1.476       .  S
C390        C796   1.486       .  S
C391        C572   1.498       .  S
C392        C593   1.494       .  S
O393       Cu401   1.996       .  S
O393        C403   1.276   1_455  A
O394       Cu401   2.008       .  S
O394        C404   1.279       .  A
O395       Cu401   2.014       .  S
O395        C405   1.278       .  A
O396       Cu401   2.008   1_545  S
O396        C406   1.278   1_455  A
O397       Cu402   2.022   1_545  S
O397        C406   1.280       .  A
O398       Cu402   2.016       .  S
O398        C405   1.279   1_655  A
O399       Cu402   2.010       .  S
O399        C404   1.277   1_655  A
O400       Cu402   2.002       .  S
O400        C403   1.276       .  A
Cu401      Cu402   2.373   1_455  S
C403       C1321   1.470       .  S
C404       C2224   1.487       .  S
C405        C509   1.489       .  S
C406        C544   1.496       .  S
O407       Cu415   2.003       .  S
O407        C417   1.277   1_655  A
O408       Cu415   2.003       .  S
O408        C418   1.277   1_655  A
O409       Cu415   2.007       .  S
O409        C419   1.277   1_655  A
O410       Cu415   2.006       .  S
O410        C420   1.277   1_655  A
O411       Cu416   2.012       .  S
O411        C420   1.278       .  A
O412       Cu416   2.016       .  S
O412        C419   1.279       .  A
O413       Cu416   2.020       .  S
O413        C418   1.279       .  A
O414       Cu416   2.012       .  S
O414        C417   1.279       .  A
Cu415      Cu416   2.367   1_655  S
C417        C516   1.489       .  S
C418        C537   1.488       .  S
C419       C2112   1.483       .  S
C420       C1237   1.508       .  S
O421       Cu429   2.001       .  S
O421        C431   1.276       .  A
O422       Cu429   2.008       .  S
O422        C432   1.277       .  A
O423       Cu429   2.020   1_565  S
O423        C433   1.280       .  A
O424       Cu429   2.021       .  S
O424        C434   1.280       .  A
O425       Cu430   2.000       .  S
O425        C434   1.277       .  A
O426       Cu430   2.001   1_565  S
O426        C433   1.277       .  A
O427       Cu430   2.013       .  S
O427        C432   1.279       .  A
O428       Cu430   2.000       .  S
O428        C431   1.276       .  A
Cu429      Cu430   2.373       .  S
C431       C1216   1.471       .  S
C432       C2049   1.485       .  S
C433        C453   1.490       .  S
C434        C481   1.500       .  S
O435       Cu443   2.006       .  S
O435        C445   1.278       .  A
O436       Cu443   2.004       .  S
O436        C446   1.277       .  A
O437       Cu443   2.011       .  S
O437        C447   1.278       .  A
O438       Cu443   2.004       .  S
O438        C448   1.277       .  A
O439       Cu444   2.022       .  S
O439        C448   1.279       .  A
O440       Cu444   2.017       .  S
O440        C447   1.279       .  A
O441       Cu444   2.014       .  S
O441        C446   1.278       .  A
O442       Cu444   2.023       .  S
O442        C445   1.279       .  A
Cu443      Cu444   2.367       .  S
C445       C1944   1.490       .  S
C446       C1125   1.509       .  S
C447        C460   1.489       .  S
C448        C488   1.482       .  S
C449        C450   1.410       .  A
C449        C454   1.411       .  A
C449        C467   1.451       .  S
C450        C455   1.496       .  S
C450        C451   1.410       .  A
C451        C452   1.411       .  A
C451        C456   1.451       .  S
C452        C453   1.418       .  A
C452        C468   1.452       .  S
C453        C454   1.415       .  A
C454        C457   1.451       .  S
C455        C458   1.410       .  A
C455        C462   1.410       .  A
C456        N473   1.157       .  T
C457        N475   1.157       .  T
C458        C459   1.411       .  A
C458        C463   1.451       .  S
C459        C460   1.415       .  A
C459        C465   1.451       .  S
C460        C461   1.416       .  A
C461        C462   1.412       .  A
C461        C464   1.450       .  S
C462        C466   1.451       .  S
C463        N470   1.157       .  T
C464        N471   1.156       .  T
C465        N469   1.157       .  T
C466        N472   1.157       .  T
C467        N476   1.157       .  T
C468        N474   1.157       .  T
C477        C478   1.407       .  A
C477        C482   1.410       .  A
C477        C495   1.452       .  S
C478        C483   1.496       .  S
C478        C479   1.409       .  A
C479        C480   1.413       .  A
C479        C484   1.452       .  S
C480        C481   1.421       .  A
C480        C496   1.452       .  S
C481        C482   1.422       .  A
C482        C485   1.452       .  S
C483        C486   1.410       .  A
C483        C490   1.412       .  A
C484        N501   1.157       .  T
C485        N503   1.157       .  T
C486        C487   1.408       .  A
C486        C491   1.451       .  S
C487        C488   1.413       .  A
C487        C493   1.452       .  S
C488        C489   1.414       .  A
C489        C490   1.413       .  A
C489        C492   1.451       .  S
C490        C494   1.451       .  S
C491        N498   1.157       .  T
C492        N499   1.157       .  T
C493        N497   1.157       .  T
C494        N500   1.157       .  T
C495        N504   1.157       .  T
C496        N502   1.157       .  T
C505        C506   1.410   1_655  A
C505        C510   1.411       .  A
C505        C523   1.451       .  S
C506        C511   1.496       .  S
C506        C507   1.409       .  A
C507        C508   1.411       .  A
C507        C512   1.452       .  S
C508        C509   1.417       .  A
C508        C524   1.451       .  S
C509        C510   1.416   1_455  A
C510        C513   1.451       .  S
C511        C514   1.410   1_455  A
C511        C518   1.409       .  A
C512        N529   1.157       .  T
C513        N531   1.157       .  T
C514        C515   1.410       .  A
C514        C519   1.452       .  S
C515        C516   1.417   1_655  A
C515        C521   1.450       .  S
C516        C517   1.416       .  A
C517        C518   1.411       .  A
C517        C520   1.452       .  S
C518        C522   1.450       .  S
C519        N526   1.157       .  T
C520        N527   1.157       .  T
C521        N525   1.157       .  T
C522        N528   1.157       .  T
C523        N532   1.157       .  T
C524        N530   1.157       .  T
C533        C534   1.410   1_455  A
C533        C538   1.412       .  A
C533        C551   1.451       .  S
C534        C539   1.496       .  S
C534        C535   1.409       .  A
C535        C536   1.409       .  A
C535        C540   1.451       .  S
C536        C537   1.416   1_655  A
C536        C552   1.452       .  S
C537        C538   1.416       .  A
C538        C541   1.450       .  S
C539        C542   1.408   1_655  A
C539        C546   1.409       .  A
C540        N557   1.157       .  T
C541        N559   1.157       .  T
C542        C543   1.410       .  A
C542        C547   1.452       .  S
C543        C544   1.419   1_455  A
C543        C549   1.451       .  S
C544        C545   1.420       .  A
C545        C546   1.413       .  A
C545        C548   1.451       .  S
C546        C550   1.452       .  S
C547        N554   1.157       .  T
C548        N555   1.157       .  T
C549        N553   1.157       .  T
C550        N556   1.157       .  T
C551        N560   1.157       .  T
C552        N558   1.157       .  T
C561        C562   1.412       .  A
C561        C566   1.416       .  A
C561        C579   1.451       .  S
C562        C567   1.503       .  S
C562        C563   1.410       .  A
C563        C564   1.411       .  A
C563        C568   1.451       .  S
C564        C565   1.414       .  A
C564        C580   1.450       .  S
C565        C566   1.417       .  A
C566        C569   1.452       .  S
C567        C570   1.409       .  A
C567        C574   1.412       .  A
C568        N585   1.157       .  T
C569        N587   1.157       .  T
C570        C571   1.410       .  A
C570        C575   1.451       .  S
C571        C572   1.417       .  A
C571        C577   1.451       .  S
C572        C573   1.419       .  A
C573        C574   1.417       .  A
C573        C576   1.451       .  S
C574        C578   1.451       .  S
C575        N582   1.157       .  T
C576        N583   1.157       .  T
C577        N581   1.157       .  T
C578        N584   1.157       .  T
C579        N588   1.157       .  T
C580        N586   1.156       .  T
C589        C590   1.411       .  A
C589        C594   1.414       .  A
C589        C607   1.451       .  S
C590        C595   1.500       .  S
C590        C591   1.410       .  A
C591        C592   1.411       .  A
C591        C596   1.451       .  S
C592        C593   1.418       .  A
C592        C608   1.451       .  S
C593        C594   1.418       .  A
C594        C597   1.452       .  S
C595        C598   1.410       .  A
C595        C602   1.411       .  A
C596        N613   1.157       .  T
C597        N615   1.157       .  T
C598        C599   1.411       .  A
C598        C603   1.451       .  S
C599        C600   1.415       .  A
C599        C605   1.448       .  S
C600        C601   1.416       .  A
C601        C602   1.414       .  A
C601        C604   1.451       .  S
C602        C606   1.450       .  S
C603        N610   1.157       .  T
C604        N611   1.157       .  T
C605        N609   1.156       .  T
C606        N612   1.157       .  T
C607        N616   1.157       .  T
C608        N614   1.157       .  T
C617        C618   1.411   1_565  A
C617        C622   1.407       .  A
C617        C635   1.452       .  S
C618        C623   1.496       .  S
C618        C619   1.411       .  A
C619        C620   1.413       .  A
C619        C624   1.451       .  S
C620        C621   1.417       .  A
C620        C636   1.452       .  S
C621        C622   1.413   1_545  A
C622        C625   1.451       .  S
C623        C626   1.411       .  A
C623        C630   1.411   1_545  A
C624        N641   1.157       .  T
C625        N643   1.156       .  T
C626        C627   1.410       .  A
C626        C631   1.452       .  S
C627        C628   1.414       .  A
C627        C633   1.450       .  S
C628        C629   1.415   1_545  A
C629        C630   1.411       .  A
C629        C632   1.452       .  S
C630        C634   1.451       .  S
C631        N638   1.157       .  T
C632        N639   1.157       .  T
C633        N637   1.157       .  T
C634        N640   1.157       .  T
C635        N644   1.157       .  T
C636        N642   1.157       .  T
C645        C646   1.411   1_565  A
C645        C650   1.412       .  A
C645        C663   1.450       .  S
C646        C651   1.500       .  S
C646        C647   1.410       .  A
C647        C648   1.411       .  A
C647        C652   1.451       .  S
C648        C649   1.418       .  A
C648        C664   1.452       .  S
C649        C650   1.416   1_545  A
C650        C653   1.451       .  S
C651        C654   1.411       .  A
C651        C658   1.409   1_545  A
C652        N669   1.157       .  T
C653        N671   1.157       .  T
C654        C655   1.413       .  A
C654        C659   1.451       .  S
C655        C656   1.418       .  A
C655        C661   1.451       .  S
C656        C657   1.419   1_545  A
C657        C658   1.413       .  A
C657        C660   1.451       .  S
C658        C662   1.451       .  S
C659        N666   1.157       .  T
C660        N667   1.157       .  T
C661        N665   1.157       .  T
C662        N668   1.157       .  T
C663        N672   1.157       .  T
C664        N670   1.157       .  T
C673        C674   1.410       .  A
C673        C678   1.413       .  A
C673        C691   1.451       .  S
C674        C679   1.501       .  S
C674        C675   1.411       .  A
C675        C676   1.413       .  A
C675        C680   1.452       .  S
C676        C677   1.419       .  A
C676        C692   1.451       .  S
C677        C678   1.418       .  A
C678        C681   1.451       .  S
C679        C682   1.413       .  A
C679        C686   1.413       .  A
C680        N697   1.157       .  T
C681        N699   1.157       .  T
C682        C683   1.411       .  A
C682        C687   1.451       .  S
C683        C684   1.413       .  A
C683        C689   1.453       .  S
C684        C685   1.412       .  A
C685        C686   1.412       .  A
C685        C688   1.451       .  S
C686        C690   1.450       .  S
C687        N694   1.157       .  T
C688        N695   1.157       .  T
C689        N693   1.157       .  T
C690        N696   1.157       .  T
C691        N700   1.157       .  T
C692        N698   1.157       .  T
C701        C702   1.410       .  A
C701        C706   1.414       .  A
C701        C719   1.451       .  S
C702        C707   1.497       .  S
C702        C703   1.408       .  A
C703        C704   1.412       .  A
C703        C708   1.451       .  S
C704        C705   1.419       .  A
C704        C720   1.451       .  S
C705        C706   1.418       .  A
C706        C709   1.451       .  S
C707        C710   1.413       .  A
C707        C714   1.410       .  A
C708        N725   1.157       .  T
C709        N727   1.157       .  T
C710        C711   1.412       .  A
C710        C715   1.450       .  S
C711        C712   1.413       .  A
C711        C717   1.451       .  S
C712        C713   1.414       .  A
C713        C714   1.409       .  A
C713        C716   1.453       .  S
C714        C718   1.450       .  S
C715        N722   1.157       .  T
C716        N723   1.157       .  T
C717        N721   1.157       .  T
C718        N724   1.157       .  T
C719        N728   1.157       .  T
C720        N726   1.157       .  T
C729        C730   1.410       .  A
C729        C734   1.412       .  A
C729        C747   1.451       .  S
C730        C735   1.497       .  S
C730        C731   1.410   1_545  A
C731        C732   1.411       .  A
C731        C736   1.452       .  S
C732        C733   1.415   1_565  A
C732        C748   1.450       .  S
C733        C734   1.415       .  A
C734        C737   1.451       .  S
C735        C738   1.410       .  A
C735        C742   1.412   1_545  A
C736        N753   1.157       .  T
C737        N755   1.157       .  T
C738        C739   1.408       .  A
C738        C743   1.450       .  S
C739        C740   1.415   1_545  A
C739        C745   1.452       .  S
C740        C741   1.416       .  A
C741        C742   1.412       .  A
C741        C744   1.450       .  S
C742        C746   1.452       .  S
C743        N750   1.157       .  T
C744        N751   1.156       .  T
C745        N749   1.157       .  T
C746        N752   1.157       .  T
C747        N756   1.157       .  T
C748        N754   1.157       .  T
C757        C758   1.412   1_565  A
C757        C762   1.413       .  A
C757        C775   1.450       .  S
C758        C763   1.497       .  S
C758        C759   1.410       .  A
C759        C760   1.408       .  A
C759        C764   1.452       .  S
C760        C761   1.414   1_545  A
C760        C776   1.449       .  S
C761        C762   1.415       .  A
C762        C765   1.451       .  S
C763        C766   1.411   1_545  A
C763        C770   1.411       .  A
C764        N781   1.157       .  T
C765        N783   1.157       .  T
C766        C767   1.409       .  A
C766        C771   1.451       .  S
C767        C768   1.415   1_565  A
C767        C773   1.452       .  S
C768        C769   1.417       .  A
C769        C770   1.412       .  A
C769        C772   1.450       .  S
C770        C774   1.451       .  S
C771        N778   1.157       .  T
C772        N779   1.157       .  T
C773        N777   1.157       .  T
C774        N780   1.157       .  T
C775        N784   1.157       .  T
C776        N782   1.156       .  T
C785        C786   1.411       .  A
C785        C790   1.413       .  A
C785        C803   1.451       .  S
C786        C791   1.501   1_554  S
C786        C787   1.412       .  A
C787        C788   1.412       .  A
C787        C792   1.450       .  S
C788        C789   1.414       .  A
C788        C804   1.451       .  S
C789        C790   1.417       .  A
C790        C793   1.451       .  S
C791        C794   1.413       .  A
C791        C798   1.413       .  A
C792        N809   1.157   1_554  T
C793        N811   1.157       .  T
C794        C795   1.412       .  A
C794        C799   1.451       .  S
C795        C796   1.414       .  A
C795        C801   1.452       .  S
C796        C797   1.412       .  A
C797        C798   1.412       .  A
C797        C800   1.451       .  S
C798        C802   1.450       .  S
C799        N806   1.157       .  T
C800        N807   1.157       .  T
C801        N805   1.157       .  T
C802        N808   1.157       .  T
C803        N812   1.157       .  T
C804        N810   1.157       .  T
C813        C814   1.411       .  A
C813        C818   1.410       .  A
C813        C831   1.451       .  S
C814        C819   1.495       .  S
C814        C815   1.411       .  A
C815        C816   1.409       .  A
C815        C820   1.451       .  S
C816        C817   1.416       .  A
C816        C832   1.452       .  S
C817        C818   1.414       .  A
C818        C821   1.451       .  S
C819        C822   1.411       .  A
C819        C826   1.410       .  A
C820        N837   1.157       .  T
C821        N839   1.157       .  T
C822        C823   1.411       .  A
C822        C827   1.451       .  S
C823        C824   1.413       .  A
C823        C829   1.450       .  S
C824        C825   1.415       .  A
C825        C826   1.410       .  A
C825        C828   1.452       .  S
C826        C830   1.451       .  S
C827        N834   1.157       .  T
C828        N835   1.157       .  T
C829        N833   1.157       .  T
C830        N836   1.157       .  T
C831        N840   1.157       .  T
C832        N838   1.157       .  T
C841        C842   1.410       .  A
C841        C846   1.409       .  A
C841        C859   1.451       .  S
C842        C847   1.491   1_556  S
C842        C843   1.410   1_545  A
C843        C844   1.410       .  A
C843        C848   1.451       .  S
C844        C845   1.415   1_565  A
C844        C860   1.452       .  S
C845        C846   1.412       .  A
C846        C849   1.451       .  S
C847        C850   1.409   1_545  A
C847        C854   1.408       .  A
C848        N865   1.157       .  T
C849        N867   1.157       .  T
C850        C851   1.409       .  A
C850        C855   1.452       .  S
C851        C852   1.419   1_565  A
C851        C857   1.452       .  S
C852        C853   1.418       .  A
C853        C854   1.409       .  A
C853        C856   1.452       .  S
C854        C858   1.451       .  S
C855        N862   1.157       .  T
C856        N863   1.157       .  T
C857        N861   1.157       .  T
C858        N864   1.157       .  T
C859        N868   1.157   1_556  T
C860        N866   1.157       .  T
C869        C870   1.413   1_545  A
C869        C874   1.413       .  A
C869        C887   1.451       .  S
C870        C875   1.504   1_565  S
C870        C871   1.412       .  A
C871        C872   1.413       .  A
C871        C876   1.450       .  S
C872        C873   1.414       .  A
C872        C888   1.452       .  S
C873        C874   1.413   1_565  A
C874        C877   1.451       .  S
C875        C878   1.408       .  A
C875        C882   1.408   1_545  A
C876        N893   1.157       .  T
C877        N895   1.157       .  T
C878        C879   1.415       .  A
C878        C883   1.452       .  S
C879        C880   1.426       .  A
C879        C885   1.451       .  S
C880        C881   1.427   1_545  A
C881        C882   1.414       .  A
C881        C884   1.452       .  S
C882        C886   1.452       .  S
C883        N890   1.157       .  T
C884        N891   1.157       .  T
C885        N889   1.157       .  T
C886        N892   1.157       .  T
C887        N896   1.157       .  T
C888        N894   1.157       .  T
C897        C898   1.411       .  A
C897        C902   1.413       .  A
C897        C915   1.451       .  S
C898        C903   1.496       .  S
C898        C899   1.409       .  A
C899        C900   1.409       .  A
C899        C904   1.451       .  S
C900        C901   1.418       .  A
C900        C916   1.452       .  S
C901        C902   1.417       .  A
C902        C905   1.452       .  S
C903        C906   1.412       .  A
C903        C910   1.410       .  A
C904        N921   1.157       .  T
C905        N923   1.157       .  T
C906        C907   1.413       .  A
C906        C911   1.451       .  S
C907        C908   1.416       .  A
C907        C913   1.451       .  S
C908        C909   1.413       .  A
C909        C910   1.408       .  A
C909        C912   1.452       .  S
C910        C914   1.451       .  S
C911        N918   1.157       .  T
C912        N919   1.157       .  T
C913        N917   1.157       .  T
C914        N920   1.156       .  T
C915        N924   1.157       .  T
C916        N922   1.157       .  T
C925        C926   1.412       .  A
C925        C930   1.412       .  A
C925        C943   1.450       .  S
C926        C931   1.498       .  S
C926        C927   1.412       .  A
C927        C928   1.410       .  A
C927        C932   1.451       .  S
C928        C929   1.414       .  A
C928        C944   1.452       .  S
C929        C930   1.412       .  A
C930        C933   1.451       .  S
C931        C934   1.409       .  A
C931        C938   1.409       .  A
C932        N949   1.157       .  T
C933        N951   1.157       .  T
C934        C935   1.413       .  A
C934        C939   1.451       .  S
C935        C936   1.421       .  A
C935        C941   1.451       .  S
C936        C937   1.418       .  A
C937        C938   1.412       .  A
C937        C940   1.451       .  S
C938        C942   1.451       .  S
C939        N946   1.157       .  T
C940        N947   1.157       .  T
C941        N945   1.157       .  T
C942        N948   1.157       .  T
C943        N952   1.157       .  T
C944        N950   1.157       .  T
C953        C954   1.412   1_655  A
C953        C958   1.412       .  A
C953        C971   1.452       .  S
C954        C959   1.500   1_554  S
C954        C955   1.412       .  A
C955        C956   1.412       .  A
C955        C960   1.451       .  S
C956        C957   1.414       .  A
C956        C972   1.451       .  S
C957        C958   1.417   1_455  A
C958        C961   1.452       .  S
C959        C962   1.410   1_455  A
C959        C966   1.412       .  A
C960        N977   1.157   1_554  T
C961        N979   1.157       .  T
C962        C963   1.410       .  A
C962        C967   1.452       .  S
C963        C964   1.417   1_655  A
C963        C969   1.452       .  S
C964        C965   1.416       .  A
C965        C966   1.413       .  A
C965        C968   1.452       .  S
C966        C970   1.451       .  S
C967        N974   1.157       .  T
C968        N975   1.157       .  T
C969        N973   1.157       .  T
C970        N976   1.157       .  T
C971        N980   1.157       .  T
C972        N978   1.157       .  T
C981        C982   1.411   1_655  A
C981        C986   1.412       .  A
C981        C999   1.451       .  S
C982        C987   1.500       .  S
C982        C983   1.412       .  A
C983        C984   1.412       .  A
C983        C988   1.451       .  S
C984        C985   1.414       .  A
C984       C1000   1.452       .  S
C985        C986   1.414   1_455  A
C986        C989   1.451       .  S
C987        C990   1.413   1_455  A
C987        C994   1.412       .  A
C988       N1005   1.157       .  T
C989       N1007   1.157       .  T
C990        C991   1.411       .  A
C990        C995   1.451       .  S
C991        C992   1.414   1_655  A
C991        C997   1.452       .  S
C992        C993   1.414       .  A
C993        C994   1.410       .  A
C993        C996   1.452       .  S
C994        C998   1.451       .  S
C995       N1002   1.157       .  T
C996       N1003   1.157       .  T
C997       N1001   1.157       .  T
C998       N1004   1.157       .  T
C999       N1008   1.157       .  T
C1000      N1006   1.157       .  T
C1009      C1010   1.411       .  A
C1009      C1014   1.412       .  A
C1009      C1027   1.451       .  S
C1010      C1015   1.499       .  S
C1010      C1011   1.411   1_545  A
C1011      C1012   1.412       .  A
C1011      C1016   1.452       .  S
C1012      C1013   1.416   1_565  A
C1012      C1028   1.452       .  S
C1013      C1014   1.413       .  A
C1014      C1017   1.450       .  S
C1015      C1018   1.412   1_545  A
C1015      C1022   1.411       .  A
C1016      N1033   1.157       .  T
C1017      N1035   1.157       .  T
C1018      C1019   1.410       .  A
C1018      C1023   1.450       .  S
C1019      C1020   1.414   1_565  A
C1019      C1025   1.452       .  S
C1020      C1021   1.416       .  A
C1021      C1022   1.412       .  A
C1021      C1024   1.451       .  S
C1022      C1026   1.451       .  S
C1023      N1030   1.157       .  T
C1024      N1031   1.157       .  T
C1025      N1029   1.157       .  T
C1026      N1032   1.157       .  T
C1027      N1036   1.157       .  T
C1028      N1034   1.157       .  T
C1037      C1038   1.410   1_545  A
C1037      C1042   1.410       .  A
C1037      C1055   1.451       .  S
C1038      C1043   1.496       .  S
C1038      C1039   1.409       .  A
C1039      C1040   1.411       .  A
C1039      C1044   1.451       .  S
C1040      C1041   1.417       .  A
C1040      C1056   1.451       .  S
C1041      C1042   1.416   1_565  A
C1042      C1045   1.452       .  S
C1043      C1046   1.409       .  A
C1043      C1050   1.408   1_565  A
C1044      N1061   1.157       .  T
C1045      N1063   1.157       .  T
C1046      C1047   1.412       .  A
C1046      C1051   1.452       .  S
C1047      C1048   1.420       .  A
C1047      C1053   1.451       .  S
C1048      C1049   1.421   1_565  A
C1049      C1050   1.411       .  A
C1049      C1052   1.451       .  S
C1050      C1054   1.452       .  S
C1051      N1058   1.157       .  T
C1052      N1059   1.157       .  T
C1053      N1057   1.157       .  T
C1054      N1060   1.157       .  T
C1055      N1064   1.157       .  T
C1056      N1062   1.157       .  T
C1065      C1066   1.411   1_665  A
C1065      C1070   1.407       .  A
C1065      C1083   1.451       .  S
C1066      C1071   1.492   1_454  S
C1066      C1067   1.411       .  A
C1067      C1068   1.408       .  A
C1067      C1072   1.451       .  S
C1068      C1069   1.410       .  A
C1068      C1084   1.451       .  S
C1069      C1070   1.412   1_445  A
C1070      C1073   1.452       .  S
C1071      C1074   1.407       .  A
C1071      C1078   1.405   1_645  A
C1072      N1089   1.157       .  T
C1073      N1091   1.157       .  T
C1074      C1075   1.412       .  A
C1074      C1079   1.452       .  S
C1075      C1076   1.423       .  A
C1075      C1081   1.451       .  S
C1076      C1077   1.426   1_645  A
C1077      C1078   1.409       .  A
C1077      C1080   1.452       .  S
C1078      C1082   1.453       .  S
C1079      N1086   1.157   1_556  T
C1080      N1087   1.157       .  T
C1081      N1085   1.157       .  T
C1082      N1088   1.157       .  T
C1083      N1092   1.157       .  T
C1084      N1090   1.157       .  T
C1093      C1094   1.409       .  A
C1093      C1098   1.414       .  A
C1093      C1111   1.453       .  S
C1094      C1099   1.501       .  S
C1094      C1095   1.408   1_565  A
C1095      C1096   1.411       .  A
C1095      C1100   1.452   1_655  S
C1096      C1097   1.425       .  A
C1096      C1112   1.451       .  S
C1097      C1098   1.427   1_545  A
C1098      C1101   1.452       .  S
C1099      C1102   1.413   1_565  A
C1099      C1106   1.413   1_655  A
C1100      N1117   1.157       .  T
C1101      N1119   1.157       .  T
C1102      C1103   1.410       .  A
C1102      C1107   1.451       .  S
C1103      C1104   1.413   1_545  A
C1103      C1109   1.452       .  S
C1104      C1105   1.413   1_655  A
C1105      C1106   1.412       .  A
C1105      C1108   1.451       .  S
C1106      C1110   1.451       .  S
C1107      N1114   1.157       .  T
C1108      N1115   1.157       .  T
C1109      N1113   1.157       .  T
C1110      N1116   1.157       .  T
C1111      N1120   1.157       .  T
C1112      N1118   1.157   1_655  T
C1121      C1122   1.405       .  A
C1121      C1126   1.411       .  A
C1121      C1139   1.453       .  S
C1122      C1127   1.496       .  S
C1122      C1123   1.407       .  A
C1123      C1124   1.412       .  A
C1123      C1128   1.453       .  S
C1124      C1125   1.427       .  A
C1124      C1140   1.452       .  S
C1125      C1126   1.427       .  A
C1126      C1129   1.452       .  S
C1127      C1130   1.412       .  A
C1127      C1134   1.410       .  A
C1128      N1145   1.157       .  T
C1129      N1147   1.157       .  T
C1130      C1131   1.410       .  A
C1130      C1135   1.451       .  S
C1131      C1132   1.412       .  A
C1131      C1137   1.451       .  S
C1132      C1133   1.412       .  A
C1133      C1134   1.410       .  A
C1133      C1136   1.451       .  S
C1134      C1138   1.451       .  S
C1135      N1142   1.157       .  T
C1136      N1143   1.157       .  T
C1137      N1141   1.157       .  T
C1138      N1144   1.157       .  T
C1139      N1148   1.157       .  T
C1140      N1146   1.157       .  T
C1149      C1150   1.411       .  A
C1149      C1154   1.412       .  A
C1149      C1167   1.451       .  S
C1150      C1155   1.499       .  S
C1150      C1151   1.410       .  A
C1151      C1152   1.412       .  A
C1151      C1156   1.450       .  S
C1152      C1153   1.416       .  A
C1152      C1168   1.452       .  S
C1153      C1154   1.415       .  A
C1154      C1157   1.450       .  S
C1155      C1158   1.410       .  A
C1155      C1162   1.411       .  A
C1156      N1173   1.157       .  T
C1157      N1175   1.157       .  T
C1158      C1159   1.412       .  A
C1158      C1163   1.450       .  S
C1159      C1160   1.416       .  A
C1159      C1165   1.451       .  S
C1160      C1161   1.417       .  A
C1161      C1162   1.412       .  A
C1161      C1164   1.452       .  S
C1162      C1166   1.451       .  S
C1163      N1170   1.157       .  T
C1164      N1171   1.157       .  T
C1165      N1169   1.157       .  T
C1166      N1172   1.157       .  T
C1167      N1176   1.157       .  T
C1168      N1174   1.157       .  T
C1177      C1178   1.414       .  A
C1177      C1182   1.412       .  A
C1177      C1195   1.451       .  S
C1178      C1183   1.504       .  S
C1178      C1179   1.414       .  A
C1179      C1180   1.412       .  A
C1179      C1184   1.451       .  S
C1180      C1181   1.413       .  A
C1180      C1196   1.452       .  S
C1181      C1182   1.411       .  A
C1182      C1185   1.450       .  S
C1183      C1186   1.413       .  A
C1183      C1190   1.415       .  A
C1184      N1201   1.157       .  T
C1185      N1203   1.157       .  T
C1186      C1187   1.411       .  A
C1186      C1191   1.451       .  S
C1187      C1188   1.415       .  A
C1187      C1193   1.452       .  S
C1188      C1189   1.414       .  A
C1189      C1190   1.413       .  A
C1189      C1192   1.451       .  S
C1190      C1194   1.451       .  S
C1191      N1198   1.157       .  T
C1192      N1199   1.157       .  T
C1193      N1197   1.157       .  T
C1194      N1200   1.157       .  T
C1195      N1204   1.157       .  T
C1196      N1202   1.157       .  T
C1205      C1206   1.403   1_565  A
C1205      C1210   1.409       .  A
C1205      C1223   1.453       .  S
C1206      C1211   1.490       .  S
C1206      C1207   1.406       .  A
C1207      C1208   1.411       .  A
C1207      C1212   1.453       .  S
C1208      C1209   1.426       .  A
C1208      C1224   1.452       .  S
C1209      C1210   1.427   1_545  A
C1210      C1213   1.451       .  S
C1211      C1214   1.410   1_545  A
C1211      C1218   1.410       .  A
C1212      N1229   1.157       .  T
C1213      N1231   1.157       .  T
C1214      C1215   1.407       .  A
C1214      C1219   1.451       .  S
C1215      C1216   1.410   1_565  A
C1215      C1221   1.452       .  S
C1216      C1217   1.411       .  A
C1217      C1218   1.408       .  A
C1217      C1220   1.452       .  S
C1218      C1222   1.451       .  S
C1219      N1226   1.157       .  T
C1220      N1227   1.157       .  T
C1221      N1225   1.157       .  T
C1222      N1228   1.157       .  T
C1223      N1232   1.157       .  T
C1224      N1230   1.157       .  T
C1233      C1234   1.405       .  A
C1233      C1238   1.411       .  A
C1233      C1251   1.453       .  S
C1234      C1239   1.496       .  S
C1234      C1235   1.407   1_655  A
C1235      C1236   1.413       .  A
C1235      C1240   1.452       .  S
C1236      C1237   1.426       .  A
C1236      C1252   1.452       .  S
C1237      C1238   1.427   1_455  A
C1238      C1241   1.452       .  S
C1239      C1242   1.410   1_655  A
C1239      C1246   1.411       .  A
C1240      N1257   1.157       .  T
C1241      N1259   1.157       .  T
C1242      C1243   1.411       .  A
C1242      C1247   1.451       .  S
C1243      C1244   1.414   1_455  A
C1243      C1249   1.451       .  S
C1244      C1245   1.413       .  A
C1245      C1246   1.411       .  A
C1245      C1248   1.451       .  S
C1246      C1250   1.451       .  S
C1247      N1254   1.157       .  T
C1248      N1255   1.157       .  T
C1249      N1253   1.157       .  T
C1250      N1256   1.157       .  T
C1251      N1260   1.157       .  T
C1252      N1258   1.157       .  T
C1261      C1262   1.408       .  A
C1261      C1266   1.411       .  A
C1261      C1279   1.452       .  S
C1262      C1267   1.493       .  S
C1262      C1263   1.407   1_455  A
C1263      C1264   1.410       .  A
C1263      C1268   1.452       .  S
C1264      C1265   1.420   1_655  A
C1264      C1280   1.451       .  S
C1265      C1266   1.418       .  A
C1266      C1269   1.448       .  S
C1267      C1270   1.409   1_455  A
C1267      C1274   1.409       .  A
C1268      N1285   1.157       .  T
C1269      N1287   1.156       .  T
C1270      C1271   1.409       .  A
C1270      C1275   1.451       .  S
C1271      C1272   1.416   1_655  A
C1271      C1277   1.452       .  S
C1272      C1273   1.417       .  A
C1273      C1274   1.410       .  A
C1273      C1276   1.452       .  S
C1274      C1278   1.451       .  S
C1275      N1282   1.157       .  T
C1276      N1283   1.157       .  T
C1277      N1281   1.157       .  T
C1278      N1284   1.157       .  T
C1279      N1288   1.157       .  T
C1280      N1286   1.157       .  T
C1289      C1290   1.410       .  A
C1289      C1294   1.413       .  A
C1289      C1307   1.451       .  S
C1290      C1295   1.498       .  S
C1290      C1291   1.410   1_655  A
C1291      C1292   1.412       .  A
C1291      C1296   1.451       .  S
C1292      C1293   1.416   1_455  A
C1292      C1308   1.451       .  S
C1293      C1294   1.416       .  A
C1294      C1297   1.450       .  S
C1295      C1298   1.409   1_655  A
C1295      C1302   1.409       .  A
C1296      N1313   1.157       .  T
C1297      N1315   1.157       .  T
C1298      C1299   1.410       .  A
C1298      C1303   1.451       .  S
C1299      C1300   1.419   1_455  A
C1299      C1305   1.452       .  S
C1300      C1301   1.419       .  A
C1301      C1302   1.412       .  A
C1301      C1304   1.452       .  S
C1302      C1306   1.450       .  S
C1303      N1310   1.157       .  T
C1304      N1311   1.157       .  T
C1305      N1309   1.157       .  T
C1306      N1312   1.157       .  T
C1307      N1316   1.157       .  T
C1308      N1314   1.157       .  T
C1317      C1318   1.411   1_445  A
C1317      C1322   1.406       .  A
C1317      C1335   1.451       .  S
C1318      C1323   1.488       .  S
C1318      C1319   1.410       .  A
C1319      C1320   1.407       .  A
C1319      C1324   1.451       .  S
C1320      C1321   1.411       .  A
C1320      C1336   1.451       .  S
C1321      C1322   1.411   1_665  A
C1322      C1325   1.453       .  S
C1323      C1326   1.403   1_655  A
C1323      C1330   1.407   1_565  A
C1324      N1341   1.157       .  T
C1325      N1343   1.157       .  T
C1326      C1327   1.406       .  A
C1326      C1331   1.453       .  S
C1327      C1328   1.426   1_455  A
C1327      C1333   1.452       .  S
C1328      C1329   1.425   1_565  A
C1329      C1330   1.412       .  A
C1329      C1332   1.451       .  S
C1330      C1334   1.453       .  S
C1331      N1338   1.157       .  T
C1332      N1339   1.157       .  T
C1333      N1337   1.157       .  T
C1334      N1340   1.157       .  T
C1335      N1344   1.157       .  T
C1336      N1342   1.157       .  T
C1345      C1346   1.407       .  A
C1345      C1350   1.413       .  A
C1345      C1363   1.452       .  S
C1346      C1351   1.496       .  S
C1346      C1347   1.406       .  A
C1347      C1348   1.411       .  A
C1347      C1352   1.453       .  S
C1348      C1349   1.427       .  A
C1348      C1364   1.452       .  S
C1349      C1350   1.426       .  A
C1350      C1353   1.451       .  S
C1351      C1354   1.405       .  A
C1351      C1358   1.407       .  A
C1352      N1369   1.157       .  T
C1353      N1371   1.157       .  T
C1354      C1355   1.411       .  A
C1354      C1359   1.453       .  S
C1355      C1356   1.428       .  A
C1355      C1361   1.452       .  S
C1356      C1357   1.427       .  A
C1357      C1358   1.412       .  A
C1357      C1360   1.452       .  S
C1358      C1362   1.452       .  S
C1359      N1366   1.157       .  T
C1360      N1367   1.157       .  T
C1361      N1365   1.157       .  T
C1362      N1368   1.157       .  T
C1363      N1372   1.157       .  T
C1364      N1370   1.157       .  T
C1373      C1374   1.412       .  A
C1373      C1378   1.411       .  A
C1373      C1391   1.450       .  S
C1374      C1379   1.500       .  S
C1374      C1375   1.412       .  A
C1375      C1376   1.412       .  A
C1375      C1380   1.450       .  S
C1376      C1377   1.415       .  A
C1376      C1392   1.452       .  S
C1377      C1378   1.412       .  A
C1378      C1381   1.451       .  S
C1379      C1382   1.411       .  A
C1379      C1386   1.411       .  A
C1380      N1397   1.157       .  T
C1381      N1399   1.157       .  T
C1382      C1383   1.413       .  A
C1382      C1387   1.451       .  S
C1383      C1384   1.417       .  A
C1383      C1389   1.451       .  S
C1384      C1385   1.415       .  A
C1385      C1386   1.412       .  A
C1385      C1388   1.451       .  S
C1386      C1390   1.451       .  S
C1387      N1394   1.157       .  T
C1388      N1395   1.157       .  T
C1389      N1393   1.157       .  T
C1390      N1396   1.157       .  T
C1391      N1400   1.157       .  T
C1392      N1398   1.157       .  T
C1401      C1402   1.411       .  A
C1401      C1406   1.412       .  A
C1401      C1419   1.450       .  S
C1402      C1407   1.502       .  S
C1402      C1403   1.412       .  A
C1403      C1404   1.413       .  A
C1403      C1408   1.450       .  S
C1404      C1405   1.416       .  A
C1404      C1420   1.451       .  S
C1405      C1406   1.417       .  A
C1406      C1409   1.452       .  S
C1407      C1410   1.410       .  A
C1407      C1414   1.413       .  A
C1408      N1425   1.157       .  T
C1409      N1427   1.157       .  T
C1410      C1411   1.412       .  A
C1410      C1415   1.451       .  S
C1411      C1412   1.416       .  A
C1411      C1417   1.451       .  S
C1412      C1413   1.415       .  A
C1413      C1414   1.415       .  A
C1413      C1416   1.451       .  S
C1414      C1418   1.451       .  S
C1415      N1422   1.157       .  T
C1416      N1423   1.157       .  T
C1417      N1421   1.157       .  T
C1418      N1424   1.157       .  T
C1419      N1428   1.157       .  T
C1420      N1426   1.157       .  T
C1429      C1430   1.409       .  A
C1429      C1434   1.410       .  A
C1429      C1447   1.450       .  S
C1430      C1435   1.493       .  S
C1430      C1431   1.410       .  A
C1431      C1432   1.409       .  A
C1431      C1436   1.452       .  S
C1432      C1433   1.415       .  A
C1432      C1448   1.451       .  S
C1433      C1434   1.416       .  A
C1434      C1437   1.452       .  S
C1435      C1438   1.407       .  A
C1435      C1442   1.409       .  A
C1436      N1453   1.157       .  T
C1437      N1455   1.157       .  T
C1438      C1439   1.410       .  A
C1438      C1443   1.452       .  S
C1439      C1440   1.419       .  A
C1439      C1445   1.450       .  S
C1440      C1441   1.418       .  A
C1441      C1442   1.410       .  A
C1441      C1444   1.451       .  S
C1442      C1446   1.452       .  S
C1443      N1450   1.157       .  T
C1444      N1451   1.157       .  T
C1445      N1449   1.157       .  T
C1446      N1452   1.157       .  T
C1447      N1456   1.157       .  T
C1448      N1454   1.157       .  T
C1457      C1458   1.412   1_545  A
C1457      C1462   1.410       .  A
C1457      C1475   1.452       .  S
C1458      C1463   1.498       .  S
C1458      C1459   1.411       .  A
C1459      C1460   1.409       .  A
C1459      C1464   1.452       .  S
C1460      C1461   1.416       .  A
C1460      C1476   1.452       .  S
C1461      C1462   1.416   1_565  A
C1462      C1465   1.452       .  S
C1463      C1466   1.408       .  A
C1463      C1470   1.408   1_565  A
C1464      N1481   1.157       .  T
C1465      N1483   1.157       .  T
C1466      C1467   1.411       .  A
C1466      C1471   1.453       .  S
C1467      C1468   1.426       .  A
C1467      C1473   1.451       .  S
C1468      C1469   1.426   1_565  A
C1469      C1470   1.412       .  A
C1469      C1472   1.451       .  S
C1470      C1474   1.454       .  S
C1471      N1478   1.157       .  T
C1472      N1479   1.157       .  T
C1473      N1477   1.157       .  T
C1474      N1480   1.157       .  T
C1475      N1484   1.157       .  T
C1476      N1482   1.157       .  T
C1485      C1486   1.410   1_565  A
C1485      C1490   1.412       .  A
C1485      C1503   1.451       .  S
C1486      C1491   1.499       .  S
C1486      C1487   1.410       .  A
C1487      C1488   1.412       .  A
C1487      C1492   1.451       .  S
C1488      C1489   1.417       .  A
C1488      C1504   1.451       .  S
C1489      C1490   1.417   1_545  A
C1490      C1493   1.451       .  S
C1491      C1494   1.410       .  A
C1491      C1498   1.409   1_545  A
C1492      N1509   1.157       .  T
C1493      N1511   1.157       .  T
C1494      C1495   1.413       .  A
C1494      C1499   1.450       .  S
C1495      C1496   1.418       .  A
C1495      C1501   1.452       .  S
C1496      C1497   1.419   1_545  A
C1497      C1498   1.411       .  A
C1497      C1500   1.452       .  S
C1498      C1502   1.451       .  S
C1499      N1506   1.157       .  T
C1500      N1507   1.157       .  T
C1501      N1505   1.157       .  T
C1502      N1508   1.157       .  T
C1503      N1512   1.157       .  T
C1504      N1510   1.157       .  T
C1513      C1514   1.413       .  A
C1513      C1518   1.409       .  A
C1513      C1531   1.451       .  S
C1514      C1519   1.497       .  S
C1514      C1515   1.414       .  A
C1515      C1516   1.409       .  A
C1515      C1520   1.451       .  S
C1516      C1517   1.410       .  A
C1516      C1532   1.452   1_455  S
C1517      C1518   1.411       .  A
C1518      C1521   1.451       .  S
C1519      C1522   1.413   1_455  A
C1519      C1526   1.413       .  A
C1520      N1537   1.157       .  T
C1521      N1539   1.157       .  T
C1522      C1523   1.409       .  A
C1522      C1527   1.451       .  S
C1523      C1524   1.410   1_655  A
C1523      C1529   1.451       .  S
C1524      C1525   1.410       .  A
C1525      C1526   1.410       .  A
C1525      C1528   1.451       .  S
C1526      C1530   1.451       .  S
C1527      N1534   1.157       .  T
C1528      N1535   1.157       .  T
C1529      N1533   1.157       .  T
C1530      N1536   1.157       .  T
C1531      N1540   1.157       .  T
C1532      N1538   1.157       .  T
C1541      C1542   1.410       .  A
C1541      C1546   1.409       .  A
C1541      C1559   1.451       .  S
C1542      C1547   1.491       .  S
C1542      C1543   1.410   1_455  A
C1543      C1544   1.408       .  A
C1543      C1548   1.451       .  S
C1544      C1545   1.412   1_655  A
C1544      C1560   1.452       .  S
C1545      C1546   1.414       .  A
C1546      C1549   1.452       .  S
C1547      C1550   1.407   1_455  A
C1547      C1554   1.409       .  A
C1548      N1565   1.157       .  T
C1549      N1567   1.157       .  T
C1550      C1551   1.409       .  A
C1550      C1555   1.452       .  S
C1551      C1552   1.418   1_655  A
C1551      C1557   1.451       .  S
C1552      C1553   1.419       .  A
C1553      C1554   1.411       .  A
C1553      C1556   1.452       .  S
C1554      C1558   1.452       .  S
C1555      N1562   1.157       .  T
C1556      N1563   1.157       .  T
C1557      N1561   1.157       .  T
C1558      N1564   1.157       .  T
C1559      N1568   1.157       .  T
C1560      N1566   1.157       .  T
C1569      C1570   1.410       .  A
C1569      C1574   1.410       .  A
C1569      C1587   1.450       .  S
C1570      C1575   1.496       .  S
C1570      C1571   1.411   1_455  A
C1571      C1572   1.411       .  A
C1571      C1576   1.452       .  S
C1572      C1573   1.416   1_655  A
C1572      C1588   1.452       .  S
C1573      C1574   1.415       .  A
C1574      C1577   1.452       .  S
C1575      C1578   1.408   1_455  A
C1575      C1582   1.410       .  A
C1576      N1593   1.157       .  T
C1577      N1595   1.157       .  T
C1578      C1579   1.411       .  A
C1578      C1583   1.451       .  S
C1579      C1580   1.421   1_655  A
C1579      C1585   1.452       .  S
C1580      C1581   1.418       .  A
C1581      C1582   1.412       .  A
C1581      C1584   1.451       .  S
C1582      C1586   1.451       .  S
C1583      N1590   1.157       .  T
C1584      N1591   1.157       .  T
C1585      N1589   1.157       .  T
C1586      N1592   1.157       .  T
C1587      N1596   1.157       .  T
C1588      N1594   1.157       .  T
C1597      C1598   1.411       .  A
C1597      C1602   1.412       .  A
C1597      C1615   1.450       .  S
C1598      C1603   1.500       .  S
C1598      C1599   1.412   1_455  A
C1599      C1600   1.412       .  A
C1599      C1604   1.451       .  S
C1600      C1601   1.414   1_655  A
C1600      C1616   1.451       .  S
C1601      C1602   1.415       .  A
C1602      C1605   1.452       .  S
C1603      C1606   1.411   1_455  A
C1603      C1610   1.411       .  A
C1604      N1621   1.157       .  T
C1605      N1623   1.157       .  T
C1606      C1607   1.412       .  A
C1606      C1611   1.450       .  S
C1607      C1608   1.416   1_655  A
C1607      C1613   1.452       .  S
C1608      C1609   1.416       .  A
C1609      C1610   1.411       .  A
C1609      C1612   1.452       .  S
C1610      C1614   1.451       .  S
C1611      N1618   1.157       .  T
C1612      N1619   1.157       .  T
C1613      N1617   1.157       .  T
C1614      N1620   1.157       .  T
C1615      N1624   1.157       .  T
C1616      N1622   1.157       .  T
C1625      C1626   1.410       .  A
C1625      C1630   1.408       .  A
C1625      C1643   1.450       .  S
C1626      C1631   1.493       .  S
C1626      C1627   1.411   1_645  A
C1627      C1628   1.411       .  A
C1627      C1632   1.451       .  S
C1628      C1629   1.415   1_465  A
C1628      C1644   1.452       .  S
C1629      C1630   1.412       .  A
C1630      C1633   1.452       .  S
C1631      C1634   1.410   1_655  A
C1631      C1638   1.410   1_545  A
C1632      N1649   1.157       .  T
C1633      N1651   1.157       .  T
C1634      C1635   1.411       .  A
C1634      C1639   1.451       .  S
C1635      C1636   1.415   1_455  A
C1635      C1641   1.451       .  S
C1636      C1637   1.414   1_545  A
C1637      C1638   1.409       .  A
C1637      C1640   1.451       .  S
C1638      C1642   1.451       .  S
C1639      N1646   1.157       .  T
C1640      N1647   1.157       .  T
C1641      N1645   1.157       .  T
C1642      N1648   1.157       .  T
C1643      N1652   1.157       .  T
C1644      N1650   1.157       .  T
C1653      C1654   1.408   1_665  A
C1653      C1658   1.410       .  A
C1653      C1671   1.452       .  S
C1654      C1659   1.492       .  S
C1654      C1655   1.408       .  A
C1655      C1656   1.410       .  A
C1655      C1660   1.452       .  S
C1656      C1657   1.419       .  A
C1656      C1672   1.451       .  S
C1657      C1658   1.418   1_445  A
C1658      C1661   1.451       .  S
C1659      C1662   1.411   1_545  A
C1659      C1666   1.410   1_455  A
C1660      N1677   1.157       .  T
C1661      N1679   1.157       .  T
C1662      C1663   1.410       .  A
C1662      C1667   1.451       .  S
C1663      C1664   1.415   1_565  A
C1663      C1669   1.452       .  S
C1664      C1665   1.412   1_455  A
C1665      C1666   1.407       .  A
C1665      C1668   1.452       .  S
C1666      C1670   1.450       .  S
C1667      N1674   1.157       .  T
C1668      N1675   1.157       .  T
C1669      N1673   1.157       .  T
C1670      N1676   1.157       .  T
C1671      N1680   1.157       .  T
C1672      N1678   1.157       .  T
C1681      C1682   1.411       .  A
C1681      C1686   1.410       .  A
C1681      C1699   1.451       .  S
C1682      C1687   1.494       .  S
C1682      C1683   1.411       .  A
C1683      C1684   1.409       .  A
C1683      C1688   1.450       .  S
C1684      C1685   1.411       .  A
C1684      C1700   1.452       .  S
C1685      C1686   1.412       .  A
C1686      C1689   1.451       .  S
C1687      C1690   1.406       .  A
C1687      C1694   1.406       .  A
C1688      N1705   1.157       .  T
C1689      N1707   1.157       .  T
C1690      C1691   1.412       .  A
C1690      C1695   1.452       .  S
C1691      C1692   1.426       .  A
C1691      C1697   1.452       .  S
C1692      C1693   1.426       .  A
C1693      C1694   1.411       .  A
C1693      C1696   1.452       .  S
C1694      C1698   1.453       .  S
C1695      N1702   1.157       .  T
C1696      N1703   1.157       .  T
C1697      N1701   1.157       .  T
C1698      N1704   1.157       .  T
C1699      N1708   1.157       .  T
C1700      N1706   1.157       .  T
C1709      C1710   1.413       .  A
C1709      C1714   1.412       .  A
C1709      C1727   1.450       .  S
C1710      C1715   1.501       .  S
C1710      C1711   1.412   1_545  A
C1711      C1712   1.411       .  A
C1711      C1716   1.450       .  S
C1712      C1713   1.412   1_565  A
C1712      C1728   1.452       .  S
C1713      C1714   1.412       .  A
C1714      C1717   1.451       .  S
C1715      C1718   1.406       .  A
C1715      C1722   1.407   1_545  A
C1716      N1733   1.157       .  T
C1717      N1735   1.157       .  T
C1718      C1719   1.414       .  A
C1718      C1723   1.452       .  S
C1719      C1720   1.428       .  A
C1719      C1725   1.451       .  S
C1720      C1721   1.429   1_545  A
C1721      C1722   1.415       .  A
C1721      C1724   1.451       .  S
C1722      C1726   1.453       .  S
C1723      N1730   1.157       .  T
C1724      N1731   1.157       .  T
C1725      N1729   1.157       .  T
C1726      N1732   1.157       .  T
C1727      N1736   1.157       .  T
C1728      N1734   1.157       .  T
C1737      C1738   1.409       .  A
C1737      C1742   1.412       .  A
C1737      C1755   1.451       .  S
C1738      C1743   1.496       .  S
C1738      C1739   1.410       .  A
C1739      C1740   1.410       .  A
C1739      C1744   1.451       .  S
C1740      C1741   1.416       .  A
C1740      C1756   1.452       .  S
C1741      C1742   1.419       .  A
C1742      C1745   1.451       .  S
C1743      C1746   1.410       .  A
C1743      C1750   1.410       .  A
C1744      N1761   1.157       .  T
C1745      N1763   1.157       .  T
C1746      C1747   1.412       .  A
C1746      C1751   1.451       .  S
C1747      C1748   1.416       .  A
C1747      C1753   1.449       .  S
C1748      C1749   1.416       .  A
C1749      C1750   1.411       .  A
C1749      C1752   1.452       .  S
C1750      C1754   1.451       .  S
C1751      N1758   1.157       .  T
C1752      N1759   1.157       .  T
C1753      N1757   1.157       .  T
C1754      N1760   1.157       .  T
C1755      N1764   1.157       .  T
C1756      N1762   1.157       .  T
C1765      C1766   1.410       .  A
C1765      C1770   1.410       .  A
C1765      C1783   1.451       .  S
C1766      C1771   1.497       .  S
C1766      C1767   1.412       .  A
C1767      C1768   1.413       .  A
C1767      C1772   1.451       .  S
C1768      C1769   1.415       .  A
C1768      C1784   1.451       .  S
C1769      C1770   1.414       .  A
C1770      C1773   1.451       .  S
C1771      C1774   1.408       .  A
C1771      C1778   1.410       .  A
C1772      N1789   1.157       .  T
C1773      N1791   1.157       .  T
C1774      C1775   1.411       .  A
C1774      C1779   1.452       .  S
C1775      C1776   1.420       .  A
C1775      C1781   1.452       .  S
C1776      C1777   1.420       .  A
C1777      C1778   1.413       .  A
C1777      C1780   1.451       .  S
C1778      C1782   1.451       .  S
C1779      N1786   1.157       .  T
C1780      N1787   1.157       .  T
C1781      N1785   1.157       .  T
C1782      N1788   1.157       .  T
C1783      N1792   1.157       .  T
C1784      N1790   1.157       .  T
C1793      C1794   1.413   1_455  A
C1793      C1798   1.411       .  A
C1793      C1811   1.451       .  S
C1794      C1799   1.499       .  S
C1794      C1795   1.412       .  A
C1795      C1796   1.410       .  A
C1795      C1800   1.450       .  S
C1796      C1797   1.411       .  A
C1796      C1812   1.452       .  S
C1797      C1798   1.412   1_655  A
C1798      C1801   1.452       .  S
C1799      C1802   1.407       .  A
C1799      C1806   1.407   1_655  A
C1800      N1817   1.157       .  T
C1801      N1819   1.157       .  T
C1802      C1803   1.415       .  A
C1802      C1807   1.453       .  S
C1803      C1804   1.428       .  A
C1803      C1809   1.451       .  S
C1804      C1805   1.425   1_655  A
C1805      C1806   1.412       .  A
C1805      C1808   1.451       .  S
C1806      C1810   1.452       .  S
C1807      N1814   1.157       .  T
C1808      N1815   1.157       .  T
C1809      N1813   1.157       .  T
C1810      N1816   1.157       .  T
C1811      N1820   1.157       .  T
C1812      N1818   1.157       .  T
C1821      C1822   1.411       .  A
C1821      C1826   1.411       .  A
C1821      C1839   1.451       .  S
C1822      C1827   1.495       .  S
C1822      C1823   1.412   1_545  A
C1823      C1824   1.409       .  A
C1823      C1828   1.451       .  S
C1824      C1825   1.412   1_565  A
C1824      C1840   1.451       .  S
C1825      C1826   1.415       .  A
C1826      C1829   1.453       .  S
C1827      C1830   1.412       .  A
C1827      C1834   1.410   1_545  A
C1828      N1845   1.157       .  T
C1829      N1847   1.157       .  T
C1830      C1831   1.411       .  A
C1830      C1835   1.452       .  S
C1831      C1832   1.415       .  A
C1831      C1837   1.451       .  S
C1832      C1833   1.415   1_545  A
C1833      C1834   1.409       .  A
C1833      C1836   1.452       .  S
C1834      C1838   1.451       .  S
C1835      N1842   1.157       .  T
C1836      N1843   1.157       .  T
C1837      N1841   1.157       .  T
C1838      N1844   1.157       .  T
C1839      N1848   1.157       .  T
C1840      N1846   1.157       .  T
C1849      C1850   1.413       .  A
C1849      C1854   1.415       .  A
C1849      C1867   1.450       .  S
C1850      C1855   1.505       .  S
C1850      C1851   1.411   1_565  A
C1851      C1852   1.413       .  A
C1851      C1856   1.451       .  S
C1852      C1853   1.418   1_545  A
C1852      C1868   1.452       .  S
C1853      C1854   1.417       .  A
C1854      C1857   1.451       .  S
C1855      C1858   1.412       .  A
C1855      C1862   1.412   1_565  A
C1856      N1873   1.157       .  T
C1857      N1875   1.157       .  T
C1858      C1859   1.415       .  A
C1858      C1863   1.450       .  S
C1859      C1860   1.417       .  A
C1859      C1865   1.450       .  S
C1860      C1861   1.417   1_565  A
C1861      C1862   1.413       .  A
C1861      C1864   1.452       .  S
C1862      C1866   1.450       .  S
C1863      N1870   1.157       .  T
C1864      N1871   1.157       .  T
C1865      N1869   1.157       .  T
C1866      N1872   1.157       .  T
C1867      N1876   1.157       .  T
C1868      N1874   1.157       .  T
C1877      C1878   1.406   1_565  A
C1877      C1882   1.414       .  A
C1877      C1895   1.453       .  S
C1878      C1883   1.498       .  S
C1878      C1879   1.407   1_455  A
C1879      C1880   1.414   1_655  A
C1879      C1884   1.453       .  S
C1880      C1881   1.427       .  A
C1880      C1896   1.451   1_455  S
C1881      C1882   1.428   1_545  A
C1882      C1885   1.450       .  S
C1883      C1886   1.412       .  A
C1883      C1890   1.412   1_445  A
C1884      N1901   1.157       .  T
C1885      N1903   1.157       .  T
C1886      C1887   1.410       .  A
C1886      C1891   1.451       .  S
C1887      C1888   1.412       .  A
C1887      C1893   1.452       .  S
C1888      C1889   1.413   1_445  A
C1889      C1890   1.411       .  A
C1889      C1892   1.452       .  S
C1890      C1894   1.450       .  S
C1891      N1898   1.157       .  T
C1892      N1899   1.157       .  T
C1893      N1897   1.157       .  T
C1894      N1900   1.157       .  T
C1895      N1904   1.157       .  T
C1896      N1902   1.157       .  T
C1905      C1906   1.411       .  A
C1905      C1910   1.411       .  A
C1905      C1923   1.451       .  S
C1906      C1911   1.494       .  S
C1906      C1907   1.409       .  A
C1907      C1908   1.410       .  A
C1907      C1912   1.451       .  S
C1908      C1909   1.414       .  A
C1908      C1924   1.450       .  S
C1909      C1910   1.415       .  A
C1910      C1913   1.452       .  S
C1911      C1914   1.410       .  A
C1911      C1918   1.410       .  A
C1912      N1929   1.157       .  T
C1913      N1931   1.158       .  T
C1914      C1915   1.409       .  A
C1914      C1919   1.451       .  S
C1915      C1916   1.414       .  A
C1915      C1921   1.452       .  S
C1916      C1917   1.414       .  A
C1917      C1918   1.411       .  A
C1917      C1920   1.451       .  S
C1918      C1922   1.450       .  S
C1919      N1926   1.157       .  T
C1920      N1927   1.157       .  T
C1921      N1925   1.157       .  T
C1922      N1928   1.157       .  T
C1923      N1932   1.157       .  T
C1924      N1930   1.157       .  T
C1933      C1934   1.412       .  A
C1933      C1938   1.413       .  A
C1933      C1951   1.450       .  S
C1934      C1939   1.500       .  S
C1934      C1935   1.411       .  A
C1935      C1936   1.411       .  A
C1935      C1940   1.451       .  S
C1936      C1937   1.416       .  A
C1936      C1952   1.451       .  S
C1937      C1938   1.416       .  A
C1938      C1941   1.452       .  S
C1939      C1942   1.411       .  A
C1939      C1946   1.411       .  A
C1940      N1957   1.157       .  T
C1941      N1959   1.157       .  T
C1942      C1943   1.413       .  A
C1942      C1947   1.451       .  S
C1943      C1944   1.415       .  A
C1943      C1949   1.451       .  S
C1944      C1945   1.416       .  A
C1945      C1946   1.412       .  A
C1945      C1948   1.452       .  S
C1946      C1950   1.451       .  S
C1947      N1954   1.157       .  T
C1948      N1955   1.157       .  T
C1949      N1953   1.157       .  T
C1950      N1956   1.157       .  T
C1951      N1960   1.157       .  T
C1952      N1958   1.157       .  T
C1961      C1962   1.411       .  A
C1961      C1966   1.410       .  A
C1961      C1979   1.451       .  S
C1962      C1967   1.502       .  S
C1962      C1963   1.414       .  A
C1963      C1964   1.414       .  A
C1963      C1968   1.451       .  S
C1964      C1965   1.414       .  A
C1964      C1980   1.451       .  S
C1965      C1966   1.415       .  A
C1966      C1969   1.452       .  S
C1967      C1970   1.414       .  A
C1967      C1974   1.414       .  A
C1968      N1985   1.157       .  T
C1969      N1987   1.157       .  T
C1970      C1971   1.410       .  A
C1970      C1975   1.451       .  S
C1971      C1972   1.413       .  A
C1971      C1977   1.453       .  S
C1972      C1973   1.413       .  A
C1973      C1974   1.413       .  A
C1973      C1976   1.451       .  S
C1974      C1978   1.451       .  S
C1975      N1982   1.157       .  T
C1976      N1983   1.157       .  T
C1977      N1981   1.157       .  T
C1978      N1984   1.157       .  T
C1979      N1988   1.157       .  T
C1980      N1986   1.157       .  T
C1989      C1990   1.411       .  A
C1989      C1994   1.411       .  A
C1989      C2007   1.451       .  S
C1990      C1995   1.501       .  S
C1990      C1991   1.413       .  A
C1991      C1992   1.412       .  A
C1991      C1996   1.451       .  S
C1992      C1993   1.414       .  A
C1992      C2008   1.451       .  S
C1993      C1994   1.416       .  A
C1994      C1997   1.453       .  S
C1995      C1998   1.412       .  A
C1995      C2002   1.412       .  A
C1996      N2013   1.157       .  T
C1997      N2015   1.157       .  T
C1998      C1999   1.413       .  A
C1998      C2003   1.451       .  S
C1999      C2000   1.414       .  A
C1999      C2005   1.451       .  S
C2000      C2001   1.415       .  A
C2001      C2002   1.412       .  A
C2001      C2004   1.452       .  S
C2002      C2006   1.451       .  S
C2003      N2010   1.157       .  T
C2004      N2011   1.157       .  T
C2005      N2009   1.157       .  T
C2006      N2012   1.157       .  T
C2007      N2016   1.157       .  T
C2008      N2014   1.157       .  T
C2017      C2018   1.412   1_545  A
C2017      C2022   1.412       .  A
C2017      C2035   1.450       .  S
C2018      C2023   1.499       .  S
C2018      C2019   1.411       .  A
C2019      C2020   1.412       .  A
C2019      C2024   1.450       .  S
C2020      C2021   1.413       .  A
C2020      C2036   1.450       .  S
C2021      C2022   1.413   1_565  A
C2022      C2025   1.451       .  S
C2023      C2026   1.411   1_565  A
C2023      C2030   1.413       .  A
C2024      N2041   1.157       .  T
C2025      N2043   1.157       .  T
C2026      C2027   1.409       .  A
C2026      C2031   1.450       .  S
C2027      C2028   1.411   1_545  A
C2027      C2033   1.452       .  S
C2028      C2029   1.413       .  A
C2029      C2030   1.414       .  A
C2029      C2032   1.451       .  S
C2030      C2034   1.450       .  S
C2031      N2038   1.157       .  T
C2032      N2039   1.158       .  T
C2033      N2037   1.157       .  T
C2034      N2040   1.157       .  T
C2035      N2044   1.157       .  T
C2036      N2042   1.157       .  T
C2045      C2046   1.412   1_565  A
C2045      C2050   1.410       .  A
C2045      C2063   1.451       .  S
C2046      C2051   1.500       .  S
C2046      C2047   1.413       .  A
C2047      C2048   1.413       .  A
C2047      C2052   1.450       .  S
C2048      C2049   1.414       .  A
C2048      C2064   1.451       .  S
C2049      C2050   1.413   1_545  A
C2050      C2053   1.451       .  S
C2051      C2054   1.412   1_545  A
C2051      C2058   1.412       .  A
C2052      N2069   1.157       .  T
C2053      N2071   1.157       .  T
C2054      C2055   1.411       .  A
C2054      C2059   1.451       .  S
C2055      C2056   1.415   1_565  A
C2055      C2061   1.451       .  S
C2056      C2057   1.416       .  A
C2057      C2058   1.413       .  A
C2057      C2060   1.451       .  S
C2058      C2062   1.451       .  S
C2059      N2066   1.157       .  T
C2060      N2067   1.157       .  T
C2061      N2065   1.157       .  T
C2062      N2068   1.157       .  T
C2063      N2072   1.157       .  T
C2064      N2070   1.157       .  T
C2073      C2074   1.409       .  A
C2073      C2078   1.413       .  A
C2073      C2091   1.453       .  S
C2074      C2079   1.500       .  S
C2074      C2075   1.407   1_655  A
C2075      C2076   1.413       .  A
C2075      C2080   1.453       .  S
C2076      C2077   1.426   1_455  A
C2076      C2092   1.451       .  S
C2077      C2078   1.426       .  A
C2078      C2081   1.452       .  S
C2079      C2082   1.411   1_655  A
C2079      C2086   1.410       .  A
C2080      N2097   1.157       .  T
C2081      N2099   1.157       .  T
C2082      C2083   1.412       .  A
C2082      C2087   1.451       .  S
C2083      C2084   1.420   1_455  A
C2083      C2089   1.453       .  S
C2084      C2085   1.420       .  A
C2085      C2086   1.411       .  A
C2085      C2088   1.452       .  S
C2086      C2090   1.452       .  S
C2087      N2094   1.157       .  T
C2088      N2095   1.157       .  T
C2089      N2093   1.157       .  T
C2090      N2096   1.157       .  T
C2091      N2100   1.157       .  T
C2092      N2098   1.157       .  T
C2101      C2102   1.412   1_655  A
C2101      C2106   1.413       .  A
C2101      C2119   1.451       .  S
C2102      C2107   1.501       .  S
C2102      C2103   1.412       .  A
C2103      C2104   1.412       .  A
C2103      C2108   1.451       .  S
C2104      C2105   1.416       .  A
C2104      C2120   1.451       .  S
C2105      C2106   1.416   1_455  A
C2106      C2109   1.451       .  S
C2107      C2110   1.413   1_455  A
C2107      C2114   1.413       .  A
C2108      N2125   1.157       .  T
C2109      N2127   1.157       .  T
C2110      C2111   1.411       .  A
C2110      C2115   1.451       .  S
C2111      C2112   1.413   1_655  A
C2111      C2117   1.452       .  S
C2112      C2113   1.412       .  A
C2113      C2114   1.412       .  A
C2113      C2116   1.451       .  S
C2114      C2118   1.450       .  S
C2115      N2122   1.157       .  T
C2116      N2123   1.157       .  T
C2117      N2121   1.157       .  T
C2118      N2124   1.157       .  T
C2119      N2128   1.157       .  T
C2120      N2126   1.157       .  T
C2129      C2130   1.408       .  A
C2129      C2134   1.410       .  A
C2129      C2147   1.452       .  S
C2130      C2135   1.497       .  S
C2130      C2131   1.410   1_455  A
C2131      C2132   1.412       .  A
C2131      C2136   1.451       .  S
C2132      C2133   1.418   1_655  A
C2132      C2148   1.451       .  S
C2133      C2134   1.418       .  A
C2134      C2137   1.449       .  S
C2135      C2138   1.409       .  A
C2135      C2142   1.412   1_455  A
C2136      N2153   1.157       .  T
C2137      N2155   1.156       .  T
C2138      C2139   1.411       .  A
C2138      C2143   1.451       .  S
C2139      C2140   1.415       .  A
C2139      C2145   1.451       .  S
C2140      C2141   1.414   1_455  A
C2141      C2142   1.412       .  A
C2141      C2144   1.450       .  S
C2142      C2146   1.452       .  S
C2143      N2150   1.157       .  T
C2144      N2151   1.156       .  T
C2145      N2149   1.157       .  T
C2146      N2152   1.157       .  T
C2147      N2156   1.157       .  T
C2148      N2154   1.157       .  T
C2157      C2158   1.409   1_455  A
C2157      C2162   1.409       .  A
C2157      C2175   1.451       .  S
C2158      C2163   1.499   1_655  S
C2158      C2159   1.412       .  A
C2159      C2160   1.414       .  A
C2159      C2164   1.452       .  S
C2160      C2161   1.419       .  A
C2160      C2176   1.450       .  S
C2161      C2162   1.419   1_655  A
C2162      C2165   1.452       .  S
C2163      C2166   1.411       .  A
C2163      C2170   1.412   1_455  A
C2164      N2181   1.157       .  T
C2165      N2183   1.157       .  T
C2166      C2167   1.412       .  A
C2166      C2171   1.451       .  S
C2167      C2168   1.413       .  A
C2167      C2173   1.448       .  S
C2168      C2169   1.413   1_455  A
C2169      C2170   1.411       .  A
C2169      C2172   1.451       .  S
C2170      C2174   1.451       .  S
C2171      N2178   1.157       .  T
C2172      N2179   1.157       .  T
C2173      N2177   1.156       .  T
C2174      N2180   1.157       .  T
C2175      N2184   1.157       .  T
C2176      N2182   1.157       .  T
C2185      C2186   1.410   1_545  A
C2185      C2190   1.416       .  A
C2185      C2203   1.452       .  S
C2186      C2191   1.508       .  S
C2186      C2187   1.410   1_455  A
C2187      C2188   1.416       .  A
C2187      C2192   1.451       .  S
C2188      C2189   1.423   1_655  A
C2188      C2204   1.451       .  S
C2189      C2190   1.426   1_565  A
C2190      C2193   1.452       .  S
C2191      C2194   1.412   1_465  A
C2191      C2198   1.411       .  A
C2192      N2209   1.157       .  T
C2193      N2211   1.157       .  T
C2194      C2195   1.416       .  A
C2194      C2199   1.451       .  S
C2195      C2196   1.419   1_645  A
C2195      C2201   1.451       .  S
C2196      C2197   1.419       .  A
C2197      C2198   1.415       .  A
C2197      C2200   1.452       .  S
C2198      C2202   1.451       .  S
C2199      N2206   1.157       .  T
C2200      N2207   1.157       .  T
C2201      N2205   1.157       .  T
C2202      N2208   1.157       .  T
C2203      N2212   1.157       .  T
C2204      N2210   1.157       .  T
C2213      C2214   1.411   1_655  A
C2213      C2218   1.414       .  A
C2213      C2231   1.450       .  S
C2214      C2219   1.500       .  S
C2214      C2215   1.410   1_565  A
C2215      C2216   1.413       .  A
C2215      C2220   1.451       .  S
C2216      C2217   1.418   1_545  A
C2216      C2232   1.451       .  S
C2217      C2218   1.417   1_455  A
C2218      C2221   1.451       .  S
C2219      C2222   1.412   1_465  A
C2219      C2226   1.411       .  A
C2220      N2237   1.157       .  T
C2221      N2239   1.157       .  T
C2222      C2223   1.412       .  A
C2222      C2227   1.451       .  S
C2223      C2224   1.414   1_645  A
C2223      C2229   1.451       .  S
C2224      C2225   1.415       .  A
C2225      C2226   1.411       .  A
C2225      C2228   1.453       .  S
C2226      C2230   1.450       .  S
C2227      N2234   1.157       .  T
C2228      N2235   1.157       .  T
C2229      N2233   1.157       .  T
C2230      N2236   1.157       .  T
C2231      N2240   1.157       .  T
C2232      N2238   1.157       .  T
