geometry optimzed in LAMMPS
_audit_creation_date              2020-11-30 
_audit_creation_method            'lammps2cif' 
_symmetry_space_group_name_H-M    'P1' 
_symmetry_Int_Tables_number       1 
_symmetry_cell_setting            triclinic 
loop_ 
_symmetry_equiv_pos_as_xyz 
  x,y,z 
_cell_length_a                    28.32756058 
_cell_length_b                    28.578632003852768 
_cell_length_c                    33.56724248117952 
_cell_angle_alpha                 96.40283689752589 
_cell_angle_beta                  90.0233277165002 
_cell_angle_gamma                 91.5881999008042 
loop_ 
_atom_site_label 
_atom_site_type_symbol 
_atom_site_fract_x 
_atom_site_fract_y 
_atom_site_fract_z 
_atom_site_charge 
C1          C  0.85210623  0.34651459  0.45321311     0.30700
C2          C  0.85497886  0.34131524  0.03180323     0.30700
C3          C  0.86147926  0.29596061  0.46267004    -0.05500
C4          C  0.89088813  0.37667113  0.47695163    -0.06300
C5          C  0.80741302  0.36008160  0.47732744    -0.06200
C6          C  0.86240488  0.29568496  0.00343497    -0.05500
C7          C  0.89209543  0.37574956  0.01694653    -0.06300
C8          C  0.80778392  0.35935110  0.01777895    -0.06200
C9          C  0.88922952  0.25613507  0.00607951    -0.31500
N10         N  0.90143510  0.23074912  0.46848659     0.15000
C11         C  0.88582698  0.25937957  0.44207803    -0.31500
H12         H  0.89513404  0.25618075  0.41064195     0.16900
C13         C  0.92806902  0.40537122  0.03356090    -0.30500
N14         N  0.94568314  0.43107808  0.00505408     0.13700
C15         C  0.92350768  0.41198722  0.47036299    -0.30500
C16         C  0.76596340  0.37496654  0.03537041    -0.30800
N17         N  0.73795042  0.39043787  0.00690365     0.14200
H18         H  0.75704738  0.37599191  0.06680405     0.16800
C19         C  0.76618217  0.38330280  0.47165618    -0.30800
H20         H  0.75610649  0.39732366  0.44442167     0.16800
H21         H  0.92842277  0.42735895  0.44259118     0.16800
H22         H  0.90390852  0.24514362  0.03318296     0.16900
H23         H  0.94032280  0.40848729  0.06429250     0.16800
C24         C  0.86455392  0.34044235  0.20224310     0.30700
C25         C  0.85346149  0.34797811  0.28226903     0.30700
C26         C  0.87198624  0.29468023  0.22128964    -0.05500
C27         C  0.89880514  0.37611410  0.22630136    -0.06300
C28         C  0.81558928  0.35572233  0.21754422    -0.06200
C29         C  0.86655351  0.29881833  0.26253918    -0.05500
C30         C  0.89188559  0.38057540  0.26711827    -0.06300
C31         C  0.80953604  0.36023090  0.25861551    -0.06200
C32         C  0.88723441  0.26018615  0.27604039    -0.31500
N33         N  0.90369361  0.23215648  0.24407582     0.15000
C34         C  0.89605850  0.25362607  0.21072031    -0.31500
H35         H  0.91144309  0.24264992  0.18180115     0.16900
C36         C  0.92322796  0.41475824  0.28413560    -0.30500
N37         N  0.95052456  0.43068942  0.25498971     0.13700
C38         C  0.93587389  0.40700041  0.21931058    -0.30500
C39         C  0.76689553  0.38249583  0.26603514    -0.30800
N40         N  0.74655335  0.38944329  0.23039998     0.14200
H41         H  0.75342729  0.39580062  0.29510210     0.16800
C42         C  0.77637867  0.37346876  0.20071094    -0.30800
H43         H  0.77104570  0.37687170  0.16923112     0.16800
H44         H  0.95040523  0.41226198  0.19031022     0.16800
H45         H  0.89322030  0.25472944  0.30701944     0.16900
H46         H  0.92615529  0.42669761  0.31574387     0.16800
C47         C  0.66791032  0.86963810  0.03587182     0.30700
C48         C  0.65659239  0.87217113  0.45658766     0.30700
C49         C  0.65387672  0.82103561  0.01340290    -0.05500
C50         C  0.62916262  0.90093370  0.02162783    -0.06300
C51         C  0.71199185  0.88449555  0.01352460    -0.06200
C52         C  0.64351284  0.82561383  0.47332524    -0.05500
C53         C  0.62681833  0.90786512  0.48148892    -0.06300
C54         C  0.70659079  0.88301783  0.47317934    -0.06200
C55         C  0.63023709  0.78007427  0.45866546    -0.31500
N56         N  0.63144738  0.74859716  0.98860176     0.15000
C57         C  0.64186620  0.77649157  0.02291053    -0.31500
H58         H  0.63944066  0.76499538  0.05247627     0.16900
C59         C  0.59373306  0.93918222  0.47303417    -0.30500
N60         N  0.57062988  0.94708624  0.00752832     0.13700
C61         C  0.59406109  0.92997094  0.03793637    -0.30500
C62         C  0.74999830  0.89566425  0.45854434    -0.30800
N63         N  0.77942776  0.91092453  0.98917594     0.14200
H64         H  0.75930343  0.89805481  0.42757246     0.16800
C65         C  0.75659252  0.90248488  0.02349664    -0.30800
H66         H  0.77085956  0.90912880  0.05354141     0.16800
H67         H  0.58623670  0.93844907  0.06939948     0.16800
H68         H  0.62719536  0.76548224  0.42760540     0.16900
H69         H  0.58220693  0.94577405  0.44346451     0.16800
C70         C  0.65668670  0.86894744  0.28642245     0.30700
C71         C  0.66528234  0.87273995  0.20665862     0.30700
C72         C  0.63797951  0.82500532  0.25996543    -0.09900
C73         C  0.63133988  0.90877505  0.26990074    -0.06300
C74         C  0.70733564  0.87426172  0.27124835    -0.06200
C75         C  0.64181363  0.82704875  0.21886853    -0.05500
C76         C  0.63436328  0.91076868  0.22903280    -0.06300
C77         C  0.71172599  0.87720763  0.23059667    -0.06200
C78         C  0.62054285  0.78625360  0.20004975    -0.31500
N79         N  0.60501474  0.75984213  0.22885726     0.15000
C80         C  0.61633750  0.78246300  0.26517536    -0.31500
H81         H  0.60998526  0.76755271  0.29292356     0.16900
C82         C  0.59933745  0.94077139  0.21974513    -0.30500
N83         N  0.57811103  0.95845969  0.25431208     0.13700
C84         C  0.59716965  0.93858416  0.28499423    -0.30500
C85         C  0.75806575  0.89042313  0.22383960    -0.30800
N86         N  0.78170689  0.89457154  0.25947927     0.14200
H87         H  0.77262237  0.89843145  0.19551573     0.16800
C88         C  0.75126278  0.88359486  0.28828814    -0.30800
H89         H  0.76002218  0.88558829  0.31982517     0.16800
H90         H  0.58471794  0.94297923  0.31564429     0.16800
H91         H  0.61552624  0.77699860  0.16815853     0.16900
H92         H  0.58860326  0.94785106  0.19013304     0.16800
O93         O  0.11987026  0.05941517  0.47645599    -0.80200
O94         O  0.91775837  0.97860348  0.48405961    -0.64900
O95         O  0.03038206  0.05730301  0.00964045    -1.11500
C96         C  0.07890901  0.90889975  0.04714584     1.06700
O97         O  0.92222300  0.96989948  0.04735690    -0.78100
O98         O  0.99438331  0.96694176  0.10119653    -0.65700
Ni99       Ni  0.05984848  0.08848676  0.47025768     1.34900
C100        C  0.02066120  0.00269232  0.11240962     0.85400
O101        O  0.94279176  0.07721689  0.97901665    -0.78600
O102        O  0.00179215  0.12161843  0.46482364    -0.88900
C103        C  0.89850073  0.97057188  0.01524395     0.85000
O104        O  0.04859224  0.05084393  0.41887545    -0.67100
O105        O  0.03485089  0.89838856  0.04986687    -0.86400
C106        C  0.01958930  0.01719832  0.40715415     0.85800
C107        C  0.95794084  0.11134526  0.46951325     1.07400
H108        H  0.01630392  0.94344661  0.48772730     0.39200
O109        O  0.00849942  0.97088165  0.01053113    -1.09100
O110        O  0.04495006  0.02302078  0.08616703    -0.65700
Ni111      Ni  0.06342370  0.00563448  0.02845741     1.26300
O112        O  0.99203019  0.99913773  0.43297090    -0.65900
O113        O  0.09503454  0.95033812  0.04240518    -0.78200
C114        C  0.13922814  0.06487990  0.01477148     0.85200
O115        O  0.11855139  0.04329730  0.04112727    -0.65400
Ni116      Ni  0.97895727  0.93482216  0.04855398     1.27400
Ni117      Ni  0.97486736  0.02236186  0.99247887     1.26100
H118        H  0.02221313  0.07860926  0.03283863     0.39800
O119        O  0.11824186  0.05235465  0.22376692    -0.80200
O120        O  0.92244522  0.97973017  0.22750525    -0.64900
O121        O  0.03222406  0.05232205  0.25970257    -1.11500
C122        C  0.08147678  0.90626825  0.29957539     1.06700
O123        O  0.91878494  0.95657718  0.28862645    -0.78100
O124        O  0.98860306  0.96664285  0.34883607    -0.65700
Ni125      Ni  0.06253156  0.08869013  0.22257635     1.34900
C126        C  0.01876147  0.99898847  0.36140477     0.85400
O127        O  0.94693709  0.07251642  0.22464535    -0.78600
O128        O  0.00712457  0.12594464  0.22229996    -0.88900
C129        C  0.90054200  0.95915385  0.25398246     0.85000
O130        O  0.04710522  0.05753234  0.16931946    -0.67100
O131        O  0.03743711  0.89677639  0.30421816    -0.86400
C132        C  0.02199069  0.02098260  0.15773271     0.85800
C133        C  0.96306399  0.11463926  0.22246284     1.07400
H134        H  0.01863881  0.94459744  0.23734735     0.39200
O135        O  0.01020597  0.96613614  0.26030096    -1.09100
O136        O  0.04777669  0.01637339  0.33631381    -0.65700
Ni137      Ni  0.06585161  0.00096291  0.27784806     1.26300
O138        O  0.99820702  0.99972192  0.18367569    -0.65900
O139        O  0.09769587  0.94622031  0.29120693    -0.78200
C140        C  0.14187896  0.05425057  0.25611662     0.85200
O141        O  0.12339698  0.03871970  0.28706678    -0.65400
Ni142      Ni  0.97936739  0.92900027  0.29697240     1.27400
Ni143      Ni  0.97772148  0.01750884  0.24061205     1.26100
H144        H  0.02363246  0.07342513  0.28294037     0.39800
C145        C  0.17266213  0.67239431  0.50280888     0.30700
C146        C  0.16857948  0.67132075  0.08268682     0.30700
C147        C  0.15551812  0.72112608  0.02838060    -0.05500
C148        C  0.13779856  0.63717544  0.01701669    -0.06300
C149        C  0.21852860  0.66524956  0.02170166    -0.06200
C150        C  0.15475567  0.71894373  0.06931214    -0.05500
C151        C  0.13627111  0.63552575  0.05781270    -0.06300
C152        C  0.21757586  0.66410067  0.06285182    -0.06200
C153        C  0.13894056  0.76174802  0.08679300    -0.31500
N154        N  0.12934992  0.78919359  0.05759567     0.15000
C155        C  0.14060673  0.76063111  0.52120008    -0.31500
H156        H  0.13353561  0.77227426  0.49223575     0.16900
C157        C  0.10449432  0.59998239  0.06512994    -0.30500
N158        N  0.08710537  0.57916483  0.02945288     0.13700
C159        C  0.10969246  0.59768821  0.49907369    -0.30500
C160        C  0.26262877  0.65383335  0.07438175    -0.30800
N161        N  0.29014402  0.64587973  0.04144106     0.14200
H162        H  0.27478949  0.65092311  0.10451427     0.16800
C163        C  0.26511236  0.64776929  0.50894212    -0.30800
H164        H  0.27685157  0.64153847  0.47822466     0.16800
H165        H  0.10336984  0.58911111  0.46734804     0.16800
H166        H  0.13330863  0.77228985  0.11832613     0.16900
H167        H  0.09526378  0.58987945  0.09431071     0.16800
C168        C  0.17574847  0.67365052  0.25294138     0.30700
C169        C  0.17547925  0.67063392  0.33271713     0.30700
C170        C  0.16129032  0.71969651  0.27810999    -0.05500
C171        C  0.14302673  0.63575622  0.26804259    -0.06300
C172        C  0.22439944  0.66425743  0.27128511    -0.06200
C173        C  0.16068939  0.71722743  0.31892951    -0.05500
C174        C  0.14297942  0.63364489  0.30881317    -0.06300
C175        C  0.22356582  0.66179835  0.31225234    -0.06200
C176        C  0.14222387  0.75820314  0.33723527    -0.31500
N177        N  0.13286314  0.78658436  0.30871775     0.15000
C178        C  0.14476405  0.76381241  0.27246079    -0.31500
H179        H  0.13877933  0.77734111  0.24410746     0.16900
C180        C  0.11293097  0.59639915  0.31587577    -0.30500
N181        N  0.09423122  0.57671459  0.28030529     0.13700
C182        C  0.11267563  0.60060390  0.25088482    -0.30500
C183        C  0.26749299  0.64804699  0.32325743    -0.30800
N184        N  0.29605009  0.64423488  0.29075040     0.14200
H185        H  0.27777181  0.63964683  0.35263515     0.16800
C186        C  0.27028388  0.65444109  0.25867644    -0.30800
H187        H  0.28348790  0.65344571  0.22840514     0.16800
H188        H  0.10417499  0.59343120  0.21931918     0.16800
H189        H  0.13383218  0.76580174  0.36871693     0.16900
H190        H  0.10565027  0.58403164  0.34461735     0.16800
C191        C  0.35781530  0.18548980  0.06581511     0.30700
C192        C  0.36196850  0.19493878  0.48739217     0.30700
C193        C  0.38442684  0.22874928  0.05226593    -0.05500
C194        C  0.38364998  0.14380621  0.04328635    -0.06300
C195        C  0.31001302  0.18303169  0.04303982    -0.06200
C196        C  0.37945437  0.23585414  0.51679566    -0.05500
C197        C  0.38733061  0.15251191  0.50101687    -0.06300
C198        C  0.31060056  0.18581486  0.50062716    -0.06200
C199        C  0.40059611  0.27921886  0.51474072    -0.31500
N200        N  0.43198854  0.28846566  0.03904158     0.15000
C201        C  0.41168462  0.26693029  0.06926323    -0.31500
H202        H  0.41756981  0.27731205  0.10090852     0.16900
C203        C  0.41660479  0.11754497  0.48511258    -0.30500
N204        N  0.42725461  0.08402860  0.01837248     0.13700
C205        C  0.40861671  0.10573532  0.05270823    -0.30500
C206        C  0.27499082  0.15942795  0.47993125    -0.30800
N207        N  0.24982253  0.14206741  0.01050569     0.14200
H208        H  0.27185318  0.15222096  0.44766973     0.16800
C209        C  0.27024918  0.15394998  0.04692372    -0.30800
H210        H  0.25996968  0.13875956  0.07379868     0.16800
H211        H  0.41531639  0.09643868  0.08251857     0.16800
H212        H  0.40970837  0.29493511  0.48777246     0.16900
H213        H  0.42821684  0.11150063  0.45435345     0.16800
C214        C  0.36224199  0.19259565  0.31834570     0.30700
C215        C  0.35478453  0.18449627  0.23793725     0.30700
C216        C  0.37819423  0.23575205  0.29883466    -0.05500
C217        C  0.39031064  0.15264071  0.29611425    -0.06300
C218        C  0.31176357  0.18122232  0.30189591    -0.06200
C219        C  0.37378258  0.23191252  0.25787166    -0.05500
C220        C  0.38653873  0.14860728  0.25473511    -0.06300
C221        C  0.30777455  0.17686760  0.25995990    -0.06200
C222        C  0.38705186  0.27484865  0.24586305    -0.31500
N223        N  0.40073556  0.30387560  0.27878573     0.15000
C224        C  0.39546764  0.28044070  0.31152053    -0.31500
H225        H  0.40207927  0.29532721  0.34216570     0.16900
C226        C  0.41298121  0.11105739  0.23972653    -0.30500
N227        N  0.43299831  0.09246426  0.27096277     0.13700
C228        C  0.41850483  0.11703183  0.30557102    -0.30500
C229        C  0.27121092  0.14437152  0.25031047    -0.30800
N230        N  0.25158109  0.13078850  0.28430229     0.14200
H231        H  0.26256810  0.12909039  0.22022720     0.16800
C232        C  0.27703165  0.15195620  0.31560539    -0.30800
H233        H  0.27335353  0.14336889  0.34608288     0.16800
H234        H  0.42773099  0.10922843  0.33533573     0.16800
H235        H  0.38650447  0.28446353  0.21557510     0.16900
H236        H  0.41833644  0.09896375  0.20840512     0.16800
O237        O  0.61417400  0.47147758  0.45763806    -0.80200
O238        O  0.43654559  0.58647106  0.98254558    -0.64900
O239        O  0.55686373  0.53637089  0.00092512    -1.11500
C240        C  0.46221006  0.41709902  0.05275266     1.06700
O241        O  0.42376493  0.58135888  0.04684059    -0.78100
O242        O  0.47070523  0.52987363  0.09995769    -0.65700
Ni243      Ni  0.60838555  0.53871058  0.45912530     1.34900
C244        C  0.51303853  0.51918660  0.10700819     0.85400
O245        O  0.52658743  0.61847591  0.97124199    -0.78600
O246        O  0.60475106  0.60586118  0.46110001    -0.88900
C247        C  0.41098254  0.59501241  0.01359331     0.85000
O248        O  0.57283010  0.53128981  0.40896563    -0.67100
O249        O  0.43280843  0.44993963  0.06080331    -0.86400
C250        C  0.52891711  0.53081601  0.40079188     0.85800
C251        C  0.57001742  0.63372488  0.46512123     1.07400
H252        H  0.46706719  0.48486570  0.48478543     0.39200
O253        O  0.47349017  0.50627870  0.00980000    -1.09100
O254        O  0.54034185  0.50277163  0.07806982    -0.65700
Ni255      Ni  0.53245422  0.47902237  0.01967650     1.26300
O256        O  0.49821167  0.53650935  0.42949211    -0.65900
O257        O  0.50273974  0.42271400  0.03637891    -0.78200
C258        C  0.61885819  0.44697348  0.98882503     0.85200
O259        O  0.59479086  0.45209484  0.02131254    -0.65400
Ni260      Ni  0.43015965  0.51543441  0.05338265     1.27400
Ni261      Ni  0.49823280  0.56191339  0.98840389     1.26100
H262        H  0.56996205  0.55587426  0.02387231     0.39800
O263        O  0.61995006  0.46628084  0.21297421    -0.80200
O264        O  0.44680510  0.59462179  0.23261935    -0.64900
O265        O  0.56657275  0.54079653  0.24872924    -1.11500
C266        C  0.46701587  0.42038828  0.29479297     1.06700
O267        O  0.43182801  0.58441720  0.29567076    -0.78100
O268        O  0.46999260  0.52546187  0.34757024    -0.65700
Ni269      Ni  0.61213958  0.53229337  0.20636339     1.34900
C270        C  0.51364844  0.52279491  0.35601239     0.85400
O271        O  0.53841090  0.62375981  0.22094724    -0.78600
O272        O  0.60976836  0.59811902  0.19915932    -0.88900
C273        C  0.41993608  0.60047441  0.26323130     0.85000
O274        O  0.57325576  0.51753307  0.15850081    -0.67100
O275        O  0.43440644  0.45062195  0.29812505    -0.86400
C276        C  0.53063863  0.52694679  0.15088918     0.85800
C277        C  0.57976171  0.63047634  0.20675060     1.07400
H278        H  0.46869354  0.49220315  0.23413522     0.39200
O279        O  0.48202496  0.51192284  0.25681866    -1.09100
O280        O  0.54430168  0.51392667  0.32760068    -0.65700
Ni281      Ni  0.54007891  0.48582315  0.26991353     1.26300
O282        O  0.50247111  0.54265540  0.17939531    -0.65900
O283        O  0.51036033  0.43014064  0.28755696    -0.78200
C284        C  0.62847248  0.45130371  0.24676106     0.85200
O285        O  0.60099333  0.46047132  0.27651957    -0.65400
Ni286      Ni  0.43460486  0.51750345  0.29727219     1.27400
Ni287      Ni  0.50821850  0.56803942  0.23736798     1.26100
H288        H  0.58148839  0.56063643  0.27060246     0.39800
C289        C  0.45303755  0.37106952  0.29797202    -0.15700
C290        C  0.41416961  0.35249032  0.27874976    -0.30900
H291        H  0.47615626  0.34891290  0.31303660     0.13300
H292        H  0.39420664  0.37361168  0.26002145     0.13900
C293        C  0.40927591  0.19533987  0.42384222    -0.12600
C294        C  0.36735239  0.20471887  0.44497977     0.09500
C295        C  0.32974328  0.22398296  0.42586003    -0.12600
C296        C  0.32902779  0.22155439  0.38472615    -0.12600
C297        C  0.36647805  0.20097571  0.36267300     0.09500
C298        C  0.40888776  0.19365696  0.38238364    -0.12600
H299        H  0.44135180  0.18753692  0.43897780     0.13500
H300        H  0.29944672  0.23792717  0.44233943     0.13500
H301        H  0.29830050  0.23379991  0.37021510     0.13500
H302        H  0.44093515  0.18526951  0.36594913     0.13500
C303        C  0.39811800  0.18218543  0.13150164    -0.12600
C304        C  0.35607185  0.18658034  0.11048481     0.09500
C305        C  0.31400610  0.19492622  0.13194153    -0.12600
C306        C  0.31297774  0.19296255  0.17300132    -0.12600
C307        C  0.35420687  0.18361776  0.19335947     0.09500
C308        C  0.39726924  0.18128014  0.17262040    -0.12600
H309        H  0.43163843  0.17945791  0.11601837     0.13500
H310        H  0.28201705  0.20415091  0.11754942     0.13500
H311        H  0.28028706  0.20036186  0.18878153     0.13500
H312        H  0.43038558  0.17895274  0.18828679     0.13500
C313        C  0.46103881  0.33057276  0.04164274    -0.15700
C314        C  0.44590880  0.37009792  0.06200423    -0.30900
H315        H  0.48906471  0.33281126  0.01976362     0.13300
H316        H  0.41467754  0.36805307  0.08061847     0.13900
C317        C  0.34375493  0.62758384  0.29214344    -0.15700
C318        C  0.37372430  0.62376481  0.26072162    -0.30900
H319        H  0.35542080  0.61616031  0.32027443     0.13300
H320        H  0.36337149  0.63523407  0.23233356     0.13900
C321        C  0.21231489  0.69419097  0.44076315    -0.12600
C322        C  0.17219689  0.67733494  0.45937928     0.09500
C323        C  0.13000748  0.66996011  0.43755729    -0.12600
C324        C  0.13122075  0.66690245  0.39630899    -0.12600
C325        C  0.17436928  0.67298004  0.37696169     0.09500
C326        C  0.21324826  0.69238282  0.39957533    -0.12600
H327        H  0.24275219  0.70868905  0.45779088     0.13500
H328        H  0.09640336  0.66564984  0.45218036     0.13500
H329        H  0.09848154  0.66051190  0.37976296     0.13500
H330        H  0.24410630  0.70656924  0.38571846     0.13500
C331        C  0.13076367  0.68975208  0.14999494    -0.12600
C332        C  0.16550941  0.66663464  0.12629646     0.09500
C333        C  0.19415520  0.63522919  0.14350046    -0.12600
C334        C  0.19792510  0.63802217  0.18465901    -0.12600
C335        C  0.17221583  0.67151009  0.20869043     0.09500
C336        C  0.13438534  0.69262276  0.19125220    -0.12600
H337        H  0.10122128  0.70569357  0.13685954     0.13500
H338        H  0.21364151  0.60876472  0.12538850     0.13500
H339        H  0.21994327  0.61324524  0.19743098     0.13500
H340        H  0.10720009  0.71036558  0.20920424     0.13500
C341        C  0.36587596  0.62004965  0.01096605    -0.15700
C342        C  0.33718136  0.62767236  0.04298385    -0.30900
H343        H  0.35655600  0.62536031  0.48234302     0.13300
H344        H  0.34916717  0.61801082  0.07165069     0.13900
C345        C  0.21147679  0.09899428  0.28796679    -0.15700
C346        C  0.18956550  0.07633912  0.25564729    -0.30900
H347        H  0.19647046  0.09651453  0.31747600     0.13300
H348        H  0.20394268  0.07932904  0.22612931     0.13900
C349        C  0.11547471  0.86795367  0.30107558    -0.15700
C350        C  0.10346054  0.82695990  0.31492031    -0.30900
H351        H  0.15011397  0.87205558  0.28781600     0.13300
H352        H  0.07005848  0.82328013  0.33032294     0.13900
C353        C  0.20858779  0.11297927  0.99962327    -0.15700
C354        C  0.18491279  0.08890859  0.02552393    -0.30900
H355        H  0.19255963  0.10961208  0.46453501     0.13300
H356        H  0.19768003  0.08882570  0.05598118     0.13900
C357        C  0.11263648  0.87013492  0.04697730    -0.15700
C358        C  0.10160902  0.83074531  0.06378527    -0.30900
H359        H  0.14567216  0.87263928  0.03083628     0.13300
H360        H  0.07030472  0.82959787  0.08240989     0.13900
C361        C  0.50445963  0.98966371  0.22987554    -0.12600
C362        C  0.54056732  0.99123101  0.25860376     0.09500
C363        C  0.53950480  0.02500052  0.29229189    -0.12600
C364        C  0.50357751  0.05738850  0.29679863    -0.12600
C365        C  0.46776968  0.05656119  0.26776459     0.09500
C366        C  0.46822947  0.02201339  0.23447850    -0.12600
H367        H  0.50413945  0.96325205  0.20411729     0.13500
H368        H  0.56724457  0.02703220  0.31467239     0.13500
H369        H  0.50475993  0.08404536  0.32236428     0.13500
H370        H  0.44068230  0.02013052  0.21197460     0.13500
C371        C  0.57932430  0.71571640  0.22398884    -0.15700
C372        C  0.59573933  0.67870427  0.20073934    -0.30900
H373        H  0.55163530  0.71010608  0.24552201     0.13300
H374        H  0.62679592  0.68342746  0.18245704     0.13900
C375        C  0.82903535  0.91251830  0.26820624    -0.15700
C376        C  0.85269495  0.93936740  0.24411379    -0.30900
H377        H  0.84480033  0.90627497  0.29660205     0.13300
H378        H  0.83696328  0.94673156  0.21608662     0.13900
C379        C  0.50094010  0.98298343  0.04220412    -0.12600
C380        C  0.53421028  0.98134007  0.01106437     0.09500
C381        C  0.53158147  0.01377102  0.98278237    -0.12600
C382        C  0.49638798  0.04685327  0.98514092    -0.12600
C383        C  0.46252886  0.04842157  0.01579496     0.09500
C384        C  0.46526192  0.01623731  0.04450724    -0.12600
H385        H  0.50212190  0.95817418  0.06428239     0.13500
H386        H  0.55745449  0.01416790  0.95909950     0.13500
H387        H  0.49658075  0.07199416  0.96333653     0.13500
H388        H  0.43968940  0.01654963  0.06846662     0.13500
C389        C  0.67435710  0.91093282  0.39525835    -0.12600
C390        C  0.65065196  0.87498292  0.41300133     0.09500
C391        C  0.61707029  0.84672352  0.39036958    -0.12600
C392        C  0.61699725  0.84588911  0.34913966    -0.12600
C393        C  0.65131867  0.87232233  0.33072022     0.09500
C394        C  0.67542412  0.90909274  0.35413537    -0.12600
H395        H  0.69325402  0.93942876  0.41295215     0.13500
H396        H  0.59043835  0.82625548  0.40427609     0.13500
H397        H  0.58902753  0.82639999  0.33251374     0.13500
H398        H  0.69553570  0.93594358  0.34063402     0.13500
C399        C  0.66818902  0.91619548  0.14535628    -0.12600
C400        C  0.67299570  0.87432670  0.16286756     0.09500
C401        C  0.68978624  0.83457882  0.13943741    -0.12600
C402        C  0.69144703  0.83383942  0.09810926    -0.12600
C403        C  0.67534815  0.87246112  0.08016295     0.09500
C404        C  0.66967316  0.91529285  0.10410102    -0.12600
H405        H  0.66325562  0.94952586  0.16319651     0.13500
H406        H  0.70009417  0.80371279  0.15294992     0.13500
H407        H  0.70440054  0.80293801  0.08046393     0.13500
H408        H  0.66521313  0.94779789  0.09100823     0.13500
C409        C  0.61987416  0.69929293  0.98643188    -0.15700
C410        C  0.58047040  0.68407506  0.46419076    -0.30900
H411        H  0.63261431  0.68517220  0.50889630     0.13300
H412        H  0.55924076  0.70224607  0.95042823     0.13900
C413        C  0.84858082  0.95541684  0.01644999    -0.15700
C414        C  0.82605685  0.93140748  0.98520929    -0.30900
H415        H  0.83157528  0.95988471  0.04550813     0.13300
H416        H  0.84222637  0.92569056  0.45626374     0.13900
C417        C  0.02342604  0.47129846  0.23304773    -0.12600
C418        C  0.98768185  0.46680477  0.26159589     0.09500
C419        C  0.98895765  0.49845727  0.29705855    -0.12600
C420        C  0.02443798  0.53355447  0.30356582    -0.12600
C421        C  0.05940467  0.53858605  0.27464232     0.09500
C422        C  0.05862841  0.50689461  0.23939397    -0.12600
H423        H  0.02439647  0.44726846  0.20581234     0.13500
H424        H  0.96193672  0.49712520  0.31964000     0.13500
H425        H  0.02363932  0.55777471  0.33074331     0.13500
H426        H  0.08549435  0.50950475  0.21677541     0.13500
C427        C  0.93374184  0.19273966  0.24636923    -0.15700
C428        C  0.92932824  0.15295303  0.22083792    -0.30900
H429        H  0.96022882  0.19511050  0.27001272     0.13300
H430        H  0.90016158  0.14827749  0.19963855     0.13900
C431        C  0.70387318  0.41427601  0.22378059    -0.15700
C432        C  0.67049837  0.42256815  0.25212331    -0.30900
H433        H  0.69874615  0.42660673  0.19463673     0.13300
H434        H  0.67483918  0.40940360  0.28094842     0.13900
C435        C  0.98481051  0.49711709  0.04800047    -0.12600
C436        C  0.98154716  0.46815025  0.01130309     0.09500
C437        C  0.01148524  0.47506509  0.47890507    -0.12600
C438        C  0.04853185  0.51202530  0.98694589    -0.12600
C439        C  0.05182191  0.54126990  0.02359834     0.09500
C440        C  0.01933769  0.53332093  0.05402317    -0.12600
H441        H  0.96000573  0.49233344  0.07182706     0.13500
H442        H  0.00680042  0.45630829  0.44928898     0.13500
H443        H  0.06720243  0.51846124  0.45896417     0.13500
H444        H  0.02001039  0.55553938  0.08231037     0.13500
C445        C  0.89363773  0.35052533  0.38884736    -0.12600
C446        C  0.85079352  0.34991416  0.40941819     0.09500
C447        C  0.80844993  0.34247488  0.38758419    -0.12600
C448        C  0.80854289  0.34332791  0.34644223    -0.12600
C449        C  0.85122704  0.34984971  0.32662960     0.09500
C450        C  0.89382645  0.34962665  0.34789199    -0.12600
H451        H  0.92714898  0.34952771  0.40417316     0.13500
H452        H  0.77560260  0.33377862  0.40167405     0.13500
H453        H  0.77574779  0.33604409  0.33026399     0.13500
H454        H  0.92754476  0.34770403  0.33273241     0.13500
C455        C  0.85102461  0.29682175  0.09251946    -0.12600
C456        C  0.85642847  0.33927864  0.07577915     0.09500
C457        C  0.86050750  0.38174660  0.10088708    -0.12600
C458        C  0.86712056  0.38133413  0.14139566    -0.12600
C459        C  0.86662910  0.33852233  0.15796920     0.09500
C460        C  0.85547346  0.29653535  0.13350256    -0.12600
H461        H  0.84123532  0.26429000  0.07452646     0.13500
H462        H  0.85927243  0.41542091  0.08904187     0.13500
H463        H  0.86994294  0.41471946  0.16006380     0.13500
H464        H  0.84766039  0.26388545  0.14579684     0.13500
C465        C  0.93372972  0.19284245  0.45970900    -0.15700
C466        C  0.92288302  0.14914297  0.46904677    -0.30900
H467        H  0.96801249  0.20058110  0.44713454     0.13300
H468        H  0.88861377  0.14917270  0.98364433     0.13900
C469        C  0.69201882  0.41127914  0.01434749    -0.15700
C470        C  0.66296344  0.41970747  0.98421624    -0.30900
H471        H  0.68130354  0.42133574  0.04511274     0.13300
H472        H  0.68078753  0.41309157  0.45320698     0.13900
C473        C  0.85017289  0.35192794  0.95341267     0.30700
C474        C  0.85663015  0.33585317  0.53154367     0.30700
C475        C  0.86006262  0.30150554  0.96283388    -0.05500
C476        C  0.88887772  0.38232152  0.97704215    -0.06300
C477        C  0.80525128  0.36518013  0.97765084    -0.06200
C478        C  0.86382901  0.29011208  0.50330917    -0.05500
C479        C  0.89395677  0.37016901  0.51682277    -0.06300
C480        C  0.80962280  0.35413736  0.51738724    -0.06200
C481        C  0.89040416  0.25037565  0.50585172    -0.31500
N482        N  0.90091639  0.23679610  0.96878442     0.15000
C483        C  0.88520517  0.26536575  0.94235235    -0.31500
H484        H  0.89478337  0.26239025  0.91097538     0.16900
C485        C  0.92938471  0.40037183  0.53365656    -0.30500
N486        N  0.94721142  0.42613198  0.50513858     0.13700
C487        C  0.92184834  0.41735006  0.97034355    -0.30500
C488        C  0.76891375  0.37232357  0.53524184    -0.30800
N489        N  0.74212769  0.38950815  0.50689121     0.14200
H490        H  0.76028278  0.37453204  0.56679851     0.16800
C491        C  0.76227530  0.38547505  0.97166965    -0.30800
H492        H  0.75074001  0.39774453  0.94406484     0.16800
H493        H  0.92701781  0.43297572  0.94270433     0.16800
H494        H  0.90548804  0.23944819  0.53282094     0.16900
H495        H  0.94096251  0.40359599  0.56457038     0.16800
C496        C  0.86083734  0.34136850  0.70235114     0.30700
C497        C  0.85105379  0.34867688  0.78225502     0.30700
C498        C  0.87778067  0.29896652  0.72204239    -0.05500
C499        C  0.88860941  0.38312919  0.72571721    -0.06300
C500        C  0.80986996  0.34732659  0.71744450    -0.06200
C501        C  0.87272940  0.30274639  0.76306779    -0.05500
C502        C  0.88244757  0.38739287  0.76662377    -0.06300
C503        C  0.80450806  0.35178428  0.75889537    -0.06200
C504        C  0.89421141  0.26436107  0.77628706    -0.31500
N505        N  0.91126518  0.23713259  0.74401405     0.15000
C506        C  0.90232888  0.25844566  0.71082313    -0.31500
H507        H  0.91579836  0.24685873  0.68131919     0.16900
C508        C  0.91137247  0.42428649  0.78297692    -0.30500
N509        N  0.93646225  0.44192499  0.75319706     0.13700
C510        C  0.92270860  0.41671081  0.71797218    -0.30500
C511        C  0.76385581  0.37734240  0.76684262    -0.30800
N512        N  0.74299718  0.38491241  0.73176933     0.14200
H513        H  0.75299772  0.39342647  0.79595979     0.16800
C514        C  0.77160092  0.36796748  0.70163804    -0.30800
H515        H  0.76706001  0.37404483  0.67062291     0.16800
H516        H  0.93732098  0.42132470  0.68887653     0.16800
H517        H  0.89870621  0.25764790  0.80714728     0.16900
H518        H  0.91577916  0.43553980  0.81460490     0.16800
C519        C  0.66573334  0.87411207  0.53686533     0.30700
C520        C  0.65817451  0.86741893  0.95559741     0.30700
C521        C  0.64749943  0.82689965  0.51468041    -0.05500
C522        C  0.63033136  0.90887308  0.52268717    -0.06300
C523        C  0.71089593  0.88484712  0.51427008    -0.06200
C524        C  0.64928851  0.81983750  0.97199411    -0.05500
C525        C  0.62524773  0.89986148  0.98057537    -0.06300
C526        C  0.70748038  0.88243829  0.97241034    -0.06200
C527        C  0.63624541  0.77427677  0.95722377    -0.31500
N528        N  0.62437593  0.75474605  0.49016513     0.15000
C529        C  0.63439423  0.78278239  0.52439635    -0.31500
H530        H  0.63223819  0.77129822  0.55398450     0.16900
C531        C  0.58932127  0.92835317  0.97236420    -0.30500
N532        N  0.57596757  0.95915582  0.50807671     0.13700
C533        C  0.59738734  0.94049053  0.53875807    -0.30500
C534        C  0.75020123  0.89749862  0.95782706    -0.30800
N535        N  0.77959333  0.90746270  0.48987738     0.14200
H536        H  0.75931608  0.89987715  0.92680468     0.16800
C537        C  0.75616013  0.90033679  0.52422753    -0.30800
H538        H  0.77008782  0.90692641  0.55437148     0.16800
H539        H  0.58912043  0.94903204  0.57014043     0.16800
H540        H  0.63147934  0.76016927  0.92619061     0.16900
H541        H  0.57723800  0.93447878  0.94283993     0.16800
C542        C  0.65769929  0.86652547  0.78605572     0.30700
C543        C  0.66828450  0.86851035  0.70625089     0.30700
C544        C  0.64569476  0.81977991  0.76029460    -0.09900
C545        C  0.62785652  0.90160789  0.76735218    -0.06300
C546        C  0.70791663  0.87789349  0.77218849    -0.06200
C547        C  0.65021469  0.82077225  0.71903062    -0.05500
C548        C  0.63211625  0.90232991  0.72652832    -0.06300
C549        C  0.71311336  0.87988397  0.73148613    -0.06200
C550        C  0.62808951  0.77990630  0.70092378    -0.31500
N551        N  0.61263059  0.75407629  0.73022229     0.15000
C552        C  0.62420459  0.77742314  0.76618255    -0.31500
H553        H  0.61636314  0.76393779  0.79429205     0.16900
C554        C  0.59922313  0.93324276  0.71546622    -0.30500
N555        N  0.57728733  0.95225781  0.74907847     0.13700
C556        C  0.59433590  0.93292245  0.78093736    -0.30500
C557        C  0.75884799  0.89524431  0.72523986    -0.30800
N558        N  0.78147963  0.90185517  0.76132439     0.14200
H559        H  0.77392583  0.90180631  0.69672713     0.16800
C560        C  0.75095453  0.89038209  0.78991902    -0.30800
H561        H  0.75934168  0.89272871  0.82154790     0.16800
H562        H  0.58250313  0.94050604  0.81158522     0.16800
H563        H  0.62089603  0.77112087  0.66927480     0.16900
H564        H  0.59163867  0.94160196  0.68551827     0.16800
O565        O  0.12062242  0.06637896  0.98009380    -0.80200
O566        O  0.91754378  0.98483670  0.98402183    -0.64900
O567        O  0.03049188  0.05167639  0.50796089    -1.11500
C568        C  0.07914525  0.90445833  0.54749384     1.06700
O569        O  0.92345263  0.96653901  0.54795233    -0.78100
O570        O  0.99515693  0.96498455  0.60187285    -0.65700
Ni571      Ni  0.06028380  0.09478507  0.97261431     1.34900
C572        C  0.02190764  0.00068024  0.61215083     0.85400
O573        O  0.94256068  0.07075756  0.47728954    -0.78600
O574        O  0.00219237  0.12790760  0.96661502    -0.88900
C575        C  0.89951198  0.96487659  0.51579806     0.85000
O576        O  0.04995001  0.05727609  0.92058852    -0.67100
O577        O  0.03516744  0.89451170  0.55162254    -0.86400
C578        C  0.02039912  0.02413129  0.90835360     0.85800
C579        C  0.95829934  0.11780036  0.97135949     1.07400
H580        H  0.01654672  0.94949854  0.98730797     0.39200
O581        O  0.00865942  0.96556573  0.51057889    -1.09100
O582        O  0.04645960  0.01953688  0.58516763    -0.65700
Ni583      Ni  0.06380451  0.00049983  0.52724292     1.26300
O584        O  0.99224193  0.00636383  0.93386222    -0.65900
O585        O  0.09540741  0.94550311  0.54165342    -0.78200
C586        C  0.13954682  0.05837095  0.51065233     0.85200
O587        O  0.11946307  0.03795211  0.53804984    -0.65400
Ni588      Ni  0.97954274  0.93113837  0.54988340     1.27400
Ni589      Ni  0.97490625  0.01641620  0.49158821     1.26100
H590        H  0.02249368  0.07333388  0.53098523     0.39800
O591        O  0.12074393  0.05109621  0.72333402    -0.80200
O592        O  0.92316805  0.98436019  0.72794083    -0.64900
O593        O  0.03442253  0.05482635  0.75920199    -1.11500
C594        C  0.07950301  0.90856023  0.80204199     1.06700
O595        O  0.91871207  0.96332955  0.78971225    -0.78100
O596        O  0.98803034  0.97403332  0.85030909    -0.65700
Ni597      Ni  0.06602371  0.08882019  0.72101517     1.34900
C598        C  0.01929538  0.00546249  0.86252493     0.85400
O599        O  0.95000096  0.07657333  0.72376815    -0.78600
O600        O  0.01187181  0.12775638  0.71988841    -0.88900
C601        C  0.90101205  0.96449874  0.75467088     0.85000
O602        O  0.04990755  0.05651943  0.66814251    -0.67100
O603        O  0.03530105  0.90077868  0.80757673    -0.86400
C604        C  0.02361825  0.02054738  0.65727685     0.85800
C605        C  0.96749868  0.11806248  0.72086149     1.07400
H606        H  0.01795325  0.94701250  0.73904657     0.39200
O607        O  0.01001823  0.96943130  0.76155308    -1.09100
O608        O  0.04904032  0.02103434  0.83708743    -0.65700
Ni609      Ni  0.06631087  0.00312319  0.77861366     1.26300
O610        O  0.99906498  0.00105773  0.68382413    -0.65900
O611        O  0.09668761  0.94785812  0.79293104    -0.78200
C612        C  0.14380982  0.05270511  0.75601024     0.85200
O613        O  0.12431309  0.03920320  0.78725145    -0.65400
Ni614      Ni  0.97824195  0.93453735  0.79929651     1.27400
Ni615      Ni  0.97912666  0.02107080  0.74063611     1.26100
H616        H  0.02636228  0.07690310  0.78198472     0.39800
C617        C  0.17066001  0.67602449  0.00298296     0.30700
C618        C  0.16996926  0.66718017  0.58230759     0.30700
C619        C  0.15755356  0.71735749  0.52816466    -0.05500
C620        C  0.13934152  0.63362474  0.51641727    -0.06300
C621        C  0.22031260  0.66122215  0.52171331    -0.06200
C622        C  0.15648797  0.71503189  0.56900911    -0.05500
C623        C  0.13784992  0.63152590  0.55711599    -0.06300
C624        C  0.21904452  0.65967866  0.56281209    -0.06200
C625        C  0.13978067  0.75757155  0.58634749    -0.31500
N626        N  0.12978597  0.78472476  0.55706959     0.15000
C627        C  0.13941815  0.76482961  0.02161291    -0.31500
H628        H  0.13262025  0.77674857  0.99270887     0.16900
C629        C  0.10696228  0.59521935  0.56410652    -0.30500
N630        N  0.08932073  0.57467038  0.52838686     0.13700
C631        C  0.10806321  0.60124187  0.99993278    -0.30500
C632        C  0.26372725  0.64825672  0.57439603    -0.30800
N633        N  0.29132208  0.64026079  0.54150064     0.14200
H634        H  0.27556525  0.64457440  0.60447605     0.16800
C635        C  0.26352287  0.65240189  0.00886402    -0.30800
H636        H  0.27520167  0.64595599  0.97814323     0.16800
H637        H  0.10168170  0.59210745  0.96825654     0.16800
H638        H  0.13365410  0.76812347  0.61780241     0.16900
H639        H  0.09875859  0.58443938  0.59323471     0.16800
C640        C  0.17457240  0.67367186  0.75249259     0.30700
C641        C  0.17271004  0.67084743  0.83222258     0.30700
C642        C  0.16004311  0.72009440  0.77731137    -0.05500
C643        C  0.14097762  0.63625041  0.76724572    -0.06300
C644        C  0.22263645  0.66383012  0.77131053    -0.06200
C645        C  0.15870822  0.71772186  0.81816129    -0.05500
C646        C  0.13970538  0.63437551  0.80802284    -0.06300
C647        C  0.22114250  0.66113533  0.81215141    -0.06200
C648        C  0.13847971  0.75817004  0.83597916    -0.31500
N649        N  0.12909497  0.78638622  0.80728886     0.15000
C650        C  0.14236509  0.76377816  0.77130076    -0.31500
H651        H  0.13637668  0.77695309  0.74280312     0.16900
C652        C  0.10697838  0.59898884  0.81460477    -0.30500
N653        N  0.08819122  0.58014859  0.77874095     0.13700
C654        C  0.10925245  0.60265782  0.74962580    -0.30500
C655        C  0.26476052  0.64609513  0.82313739    -0.30800
N656        N  0.29356965  0.64188086  0.79066934     0.14200
H657        H  0.27453085  0.63713111  0.85246700     0.16800
C658        C  0.26835318  0.65324598  0.75876619    -0.30800
H659        H  0.28172623  0.65226438  0.72854717     0.16800
H660        H  0.10106905  0.59621563  0.71795922     0.16800
H661        H  0.12868912  0.76530152  0.86719562     0.16900
H662        H  0.09751989  0.58762078  0.84328534     0.16800
C663        C  0.35139240  0.18326728  0.56529025     0.30700
C664        C  0.36524027  0.18758231  0.98606967     0.30700
C665        C  0.37342274  0.23028800  0.55658612    -0.05500
C666        C  0.38168204  0.14678427  0.54113199    -0.06300
C667        C  0.30501283  0.17953480  0.54124876    -0.06200
C668        C  0.38819622  0.22879916  0.01144632    -0.05500
C669        C  0.38705152  0.14480551  0.00215377    -0.06300
C670        C  0.31450060  0.18534837  0.00168111    -0.06200
C671        C  0.41798904  0.26514753  0.00370484    -0.31500
N672        N  0.40681518  0.30017685  0.55273463     0.15000
C673        C  0.38975564  0.27098958  0.57868529    -0.31500
H674        H  0.38942869  0.27882506  0.61098822     0.16900
C675        C  0.41303712  0.10702764  0.98730103    -0.30500
N676        N  0.42964831  0.09191139  0.51492698     0.13700
C677        C  0.40764259  0.10913347  0.54909719    -0.30500
C678        C  0.27714467  0.15997817  0.98305135    -0.30800
N679        N  0.24786728  0.13818976  0.50591084     0.14200
H680        H  0.27326418  0.15018797  0.95108845     0.16800
C681        C  0.26691275  0.14852872  0.54295478    -0.30800
H682        H  0.25676783  0.13146386  0.56888683     0.16800
H683        H  0.41213823  0.09682864  0.57813874     0.16800
H684        H  0.42894179  0.27401024  0.97449854     0.16900
H685        H  0.42232727  0.09779539  0.95625176     0.16800
C686        C  0.36574697  0.18738365  0.81624841     0.30700
C687        C  0.35513449  0.18096729  0.73616599     0.30700
C688        C  0.38018468  0.23129362  0.79709127    -0.05500
C689        C  0.39371948  0.14835119  0.79250115    -0.06300
C690        C  0.31490640  0.17586914  0.80089973    -0.06200
C691        C  0.37428918  0.22823689  0.75620909    -0.05500
C692        C  0.38822687  0.14528421  0.75128364    -0.06300
C693        C  0.30945458  0.17224825  0.75924627    -0.06200
C694        C  0.38711617  0.27134638  0.74445006    -0.31500
N695        N  0.40173931  0.29979611  0.77739424     0.15000
C696        C  0.39768014  0.27579640  0.80990756    -0.31500
H697        H  0.40539906  0.29013895  0.84051031     0.16900
C698        C  0.41509662  0.10897336  0.73454388    -0.30500
N699        N  0.43707221  0.09018814  0.76460858     0.13700
C700        C  0.42324154  0.11301891  0.80011872    -0.30500
C701        C  0.27257110  0.14025115  0.75005383    -0.30800
N702        N  0.25360924  0.12696559  0.78428051     0.14200
H703        H  0.26268913  0.12538900  0.72014237     0.16800
C704        C  0.28003431  0.14736977  0.81525301    -0.30800
H705        H  0.27662386  0.13894490  0.84578954     0.16800
H706        H  0.43383047  0.10387643  0.82913180     0.16800
H707        H  0.38573254  0.28145683  0.71434115     0.16900
H708        H  0.41951007  0.09788235  0.70292065     0.16800
O709        O  0.60526978  0.46594404  0.95836333    -0.80200
O710        O  0.43881757  0.58408873  0.48244122    -0.64900
O711        O  0.56213432  0.54039563  0.50013981    -1.11500
C712        C  0.47446003  0.41230297  0.54404043     1.06700
O713        O  0.42423538  0.57394280  0.54581139    -0.78100
O714        O  0.47192544  0.52156017  0.59776949    -0.65700
Ni715      Ni  0.60355885  0.53331930  0.96039299     1.34900
C716        C  0.51526144  0.51603968  0.60576942     0.85400
O717        O  0.52730493  0.62078622  0.47148240    -0.78600
O718        O  0.60358082  0.60074335  0.96320960    -0.88900
C719        C  0.41225382  0.58975481  0.51319526     0.85000
O720        O  0.56824000  0.52842989  0.91018154    -0.67100
O721        O  0.44141619  0.44156240  0.55215149    -0.86400
C722        C  0.52440530  0.52838776  0.90177752     0.85800
C723        C  0.57001521  0.62999472  0.96625660     1.07400
H724        H  0.45766196  0.48646705  0.98827296     0.39200
O725        O  0.48045161  0.50498004  0.50722219    -1.09100
O726        O  0.54512631  0.50476375  0.57711889    -0.65700
Ni727      Ni  0.54091852  0.48188330  0.51802340     1.26300
O728        O  0.49356598  0.53436950  0.93042512    -0.65900
O729        O  0.51557889  0.42333204  0.53194310    -0.78200
C730        C  0.62758604  0.45274663  0.48833211     0.85200
O731        O  0.60423627  0.45893031  0.52099582    -0.65400
Ni732      Ni  0.43470252  0.50784269  0.54898507     1.27400
Ni733      Ni  0.50192464  0.56267338  0.48772891     1.26100
H734        H  0.57459798  0.56028001  0.52311089     0.39800
O735        O  0.61815447  0.46354015  0.71536991    -0.80200
O736        O  0.44419957  0.59053261  0.73175423    -0.64900
O737        O  0.56448218  0.53822657  0.74948968    -1.11500
C738        C  0.46616687  0.41686937  0.79503964     1.06700
O739        O  0.42860508  0.58001129  0.79474394    -0.78100
O740        O  0.46621348  0.52191268  0.84760519    -0.65700
Ni741      Ni  0.61070344  0.52926616  0.70780537     1.34900
C742        C  0.50977803  0.52020570  0.85674194     0.85400
O743        O  0.53645149  0.62053826  0.72054639    -0.78600
O744        O  0.60823542  0.59469148  0.69977034    -0.88900
C745        C  0.41701003  0.59622585  0.76230114     0.85000
O746        O  0.57326071  0.51421792  0.65913957    -0.67100
O747        O  0.43294297  0.44642433  0.79751394    -0.86400
C748        C  0.53095984  0.52363812  0.65044700     0.85800
C749        C  0.57804128  0.62699786  0.70652427     1.07400
H750        H  0.46771431  0.48799759  0.73386651     0.39200
O751        O  0.48027558  0.50820484  0.75659550    -1.09100
O752        O  0.54106485  0.51199302  0.82872276    -0.65700
Ni753      Ni  0.53845394  0.48330284  0.77108898     1.26300
O754        O  0.50179216  0.53895407  0.67848957    -0.65900
O755        O  0.50950635  0.42743372  0.78880496    -0.78200
C756        C  0.62701167  0.44957036  0.74948328     0.85200
O757        O  0.59952130  0.45918762  0.77910750    -0.65400
Ni758      Ni  0.43218749  0.51323279  0.79651721     1.27400
Ni759      Ni  0.50609904  0.56455127  0.73692548     1.26100
H760        H  0.57886573  0.55856597  0.77131536     0.39800
C761        C  0.45296475  0.36736525  0.79774359    -0.15700
C762        C  0.41485558  0.34845496  0.77766274    -0.30900
H763        H  0.47605793  0.34544151  0.81308139     0.13300
H764        H  0.39509085  0.36947954  0.75870854     0.13900
C765        C  0.41072419  0.18161129  0.92140129    -0.12600
C766        C  0.36927739  0.19301439  0.94258887     0.09500
C767        C  0.33349540  0.21570264  0.92385449    -0.12600
C768        C  0.33391226  0.21604429  0.88297335    -0.12600
C769        C  0.37054278  0.19449607  0.86057404     0.09500
C770        C  0.41150916  0.18279698  0.88023415    -0.12600
H771        H  0.44197474  0.17141837  0.93642349     0.13500
H772        H  0.30420089  0.23166301  0.94042910     0.13500
H773        H  0.30451382  0.23113397  0.86873795     0.13500
H774        H  0.44364335  0.17423553  0.86409929     0.13500
C775        C  0.39333119  0.17856015  0.62914906    -0.12600
C776        C  0.35007267  0.17996326  0.60910311     0.09500
C777        C  0.30826339  0.18557788  0.63113596    -0.12600
C778        C  0.30937599  0.18565616  0.67233461    -0.12600
C779        C  0.35227067  0.18006563  0.69186366     0.09500
C780        C  0.39445007  0.17912615  0.67014711    -0.12600
H781        H  0.42649406  0.17842370  0.61307549     0.13500
H782        H  0.27515940  0.19241233  0.61723541     0.13500
H783        H  0.27701366  0.19230580  0.68873716     0.13500
H784        H  0.42841125  0.17929740  0.68499720     0.13500
C785        C  0.42445965  0.34719143  0.56311639    -0.15700
C786        C  0.46349342  0.36218489  0.54548242    -0.30900
H787        H  0.40373324  0.37129960  0.58289183     0.13300
H788        H  0.48506212  0.33682560  0.52774479     0.13900
C789        C  0.34071574  0.62349724  0.79150948    -0.15700
C790        C  0.37104148  0.62031339  0.76015883    -0.30900
H791        H  0.35171164  0.61040911  0.81914777     0.13300
H792        H  0.36136221  0.63337576  0.73223982     0.13900
C793        C  0.20977150  0.69638524  0.94012064    -0.12600
C794        C  0.16973778  0.68029620  0.95930809     0.09500
C795        C  0.12749066  0.67216148  0.93759371    -0.12600
C796        C  0.12849394  0.66806763  0.89623241    -0.12600
C797        C  0.17153107  0.67362165  0.87656739     0.09500
C798        C  0.21057847  0.69327730  0.89885193    -0.12600
H799        H  0.24028604  0.71134141  0.95676985     0.13500
H800        H  0.09396491  0.66817540  0.95241966     0.13500
H801        H  0.09564450  0.66159539  0.87989744     0.13500
H802        H  0.24153730  0.70675503  0.88462692     0.13500
C803        C  0.13113109  0.68641915  0.64881117    -0.12600
C804        C  0.16609093  0.66272501  0.62583837     0.09500
C805        C  0.19436321  0.63177240  0.64388191    -0.12600
C806        C  0.19749363  0.63574909  0.68512327    -0.12600
C807        C  0.17219555  0.67057676  0.70822550     0.09500
C808        C  0.13477188  0.69126597  0.69003290    -0.12600
H809        H  0.10148512  0.70151850  0.63510048     0.13500
H810        H  0.21381284  0.60473553  0.62640731     0.13500
H811        H  0.21862579  0.61085260  0.69865526     0.13500
H812        H  0.10754901  0.70969198  0.70739376     0.13500
C813        C  0.36694308  0.61449934  0.51095115    -0.15700
C814        C  0.33804877  0.62130680  0.54290558    -0.30900
H815        H  0.35521166  0.62987384  0.98206238     0.13300
H816        H  0.34977519  0.61085487  0.57137577     0.13900
C817        C  0.21244590  0.09696152  0.78810362    -0.15700
C818        C  0.19234470  0.07198770  0.75603299    -0.30900
H819        H  0.19518743  0.09797359  0.81709035     0.13300
H820        H  0.20905975  0.07105687  0.72696345     0.13900
C821        C  0.11260871  0.86912015  0.80332872    -0.15700
C822        C  0.09879293  0.82633878  0.81295431    -0.30900
H823        H  0.14857046  0.87414890  0.79307334     0.13300
H824        H  0.06362113  0.82109399  0.82485789     0.13900
C825        C  0.20724168  0.10850294  0.49433234    -0.15700
C826        C  0.18565743  0.08188259  0.51972023    -0.30900
H827        H  0.19553701  0.11180886  0.96904805     0.13300
H828        H  0.20018816  0.07972886  0.54929802     0.13900
C829        C  0.11259608  0.86548637  0.54686843    -0.15700
C830        C  0.10137981  0.82576488  0.56305133    -0.30900
H831        H  0.14577657  0.86821463  0.53097323     0.13300
H832        H  0.06984644  0.82412505  0.58134630     0.13900
C833        C  0.50652537  0.98654561  0.72293875    -0.12600
C834        C  0.54288210  0.98798051  0.75142990     0.09500
C835        C  0.54481572  0.02405489  0.78327937    -0.12600
C836        C  0.51020279  0.05764670  0.78733739    -0.12600
C837        C  0.47278707  0.05555080  0.75975901     0.09500
C838        C  0.47150736  0.02014206  0.72714131    -0.12600
H839        H  0.50458588  0.95875289  0.69823395     0.13500
H840        H  0.57330554  0.02620419  0.80498022     0.13500
H841        H  0.51288657  0.08550979  0.81192616     0.13500
H842        H  0.44300860  0.01792936  0.70547296     0.13500
C843        C  0.58433237  0.71137741  0.72647903    -0.15700
C844        C  0.59445068  0.67484668  0.69977053    -0.30900
H845        H  0.56015970  0.70570704  0.75077308     0.13300
H846        H  0.62250952  0.67878028  0.67823317     0.13900
C847        C  0.82855332  0.92034693  0.77021154    -0.15700
C848        C  0.85353250  0.94403990  0.74463645    -0.30900
H849        H  0.84316036  0.91691165  0.79966382     0.13300
H850        H  0.83907601  0.94857846  0.71542875     0.13900
C851        C  0.50396558  0.99236787  0.53974283    -0.12600
C852        C  0.53966260  0.99329724  0.51094039     0.09500
C853        C  0.53830281  0.02653895  0.48321441    -0.12600
C854        C  0.50178913  0.05817983  0.48401730    -0.12600
C855        C  0.46565453  0.05720623  0.51254716     0.09500
C856        C  0.46708045  0.02386848  0.54038863    -0.12600
H857        H  0.50401554  0.96656543  0.56102677     0.13500
H858        H  0.56589032  0.02829306  0.46107733     0.13500
H859        H  0.50260002  0.08407977  0.46285203     0.13500
H860        H  0.43955328  0.02187186  0.56250423     0.13500
C861        C  0.67238018  0.90856084  0.89505111    -0.12600
C862        C  0.65141110  0.87059126  0.91212604     0.09500
C863        C  0.61826641  0.84177479  0.88937723    -0.12600
C864        C  0.61724695  0.84239568  0.84821121    -0.12600
C865        C  0.65057031  0.87042880  0.83021923     0.09500
C866        C  0.67243363  0.90820037  0.85404526    -0.12600
H867        H  0.68992232  0.93763297  0.91312015     0.13500
H868        H  0.59292637  0.81970049  0.90312227     0.13500
H869        H  0.58990295  0.82226431  0.83122328     0.13500
H870        H  0.69062769  0.93658775  0.84100900     0.13500
C871        C  0.67357163  0.91544712  0.64741997    -0.12600
C872        C  0.67615512  0.87186045  0.66279685     0.09500
C873        C  0.68993647  0.83255927  0.63741398    -0.12600
C874        C  0.69037442  0.83460467  0.59644459    -0.12600
C875        C  0.67410638  0.87482303  0.58081494     0.09500
C876        C  0.67138091  0.91679073  0.60637972    -0.12600
H877        H  0.67125573  0.94806941  0.66693115     0.13500
H878        H  0.69952730  0.80028671  0.64903693     0.13500
H879        H  0.70203757  0.80432666  0.57718020     0.13500
H880        H  0.66710288  0.95027868  0.59486561     0.13500
C881        C  0.61433443  0.70522851  0.48821131    -0.15700
C882        C  0.58255035  0.68010790  0.96532570    -0.30900
H883        H  0.63976695  0.67795983  0.00502755     0.13300
H884        H  0.55825728  0.70460118  0.44675747     0.13900
C885        C  0.85048905  0.94767855  0.51766613    -0.15700
C886        C  0.82640701  0.92723087  0.48586667    -0.30900
H887        H  0.83518319  0.94898443  0.54732595     0.13300
H888        H  0.84341687  0.92669625  0.95621988     0.13900
C889        C  0.00973512  0.48101138  0.73004946    -0.12600
C890        C  0.97412555  0.47768978  0.75898541     0.09500
C891        C  0.97715253  0.50894147  0.79458074    -0.12600
C892        C  0.01483842  0.54174282  0.80131844    -0.12600
C893        C  0.05036363  0.54487831  0.77246856     0.09500
C894        C  0.04718917  0.51418706  0.73666033    -0.12600
H895        H  0.00938417  0.45741390  0.70253680     0.13500
H896        H  0.95019221  0.50846045  0.81732513     0.13500
H897        H  0.01560914  0.56542110  0.82883116     0.13500
H898        H  0.07412247  0.51536162  0.71390926     0.13500
C899        C  0.94064666  0.19703854  0.74548252    -0.15700
C900        C  0.93507858  0.15759428  0.71961244    -0.30900
H901        H  0.96739419  0.19850566  0.76885534     0.13300
H902        H  0.90555767  0.15388574  0.69875130     0.13900
C903        C  0.70147845  0.41172530  0.72612232    -0.15700
C904        C  0.66907292  0.42114311  0.75507521    -0.30900
H905        H  0.69582183  0.42364800  0.69690089     0.13300
H906        H  0.67380162  0.40845787  0.78406475     0.13900
C907        C  0.99186794  0.48779368  0.54919086    -0.12600
C908        C  0.98361983  0.46298188  0.51109412     0.09500
C909        C  0.01373077  0.47613716  0.98083527    -0.12600
C910        C  0.04635829  0.51100590  0.48457139    -0.12600
C911        C  0.05431105  0.53630508  0.52263172     0.09500
C912        C  0.02649546  0.52391353  0.55483829    -0.12600
H913        H  0.97080516  0.48013200  0.57465803     0.13500
H914        H  0.01241499  0.45407469  0.95244646     0.13500
H915        H  0.07320203  0.51637551  0.96298404     0.13500
H916        H  0.03057631  0.54264822  0.58447497     0.13500
C917        C  0.89148295  0.35710245  0.88887296    -0.12600
C918        C  0.84870987  0.35469078  0.90954479     0.09500
C919        C  0.80685635  0.34328559  0.88783737    -0.12600
C920        C  0.80683590  0.34169534  0.84652885    -0.12600
C921        C  0.84898727  0.35034471  0.82650713     0.09500
C922        C  0.89160101  0.35488966  0.84780598    -0.12600
H923        H  0.92517656  0.35847327  0.90413676     0.13500
H924        H  0.77460836  0.33347901  0.90233414     0.13500
H925        H  0.77441955  0.33141622  0.83056883     0.13500
H926        H  0.92522059  0.35593748  0.83253173     0.13500
C927        C  0.85347252  0.29292920  0.59329530    -0.12600
C928        C  0.85727981  0.33479989  0.57549357     0.09500
C929        C  0.85752028  0.37817337  0.59941843    -0.12600
C930        C  0.86089424  0.37983632  0.64023732    -0.12600
C931        C  0.86306207  0.33808825  0.65810445     0.09500
C932        C  0.85545078  0.29468731  0.63457969    -0.12600
H933        H  0.84642651  0.25933796  0.57596897     0.13500
H934        H  0.85522720  0.41103925  0.58636443     0.13500
H935        H  0.85976085  0.41388192  0.65782099     0.13500
H936        H  0.84884189  0.26238878  0.64779920     0.13500
C937        C  0.93325208  0.19882983  0.96012966    -0.15700
C938        C  0.92326683  0.15570890  0.97118914    -0.30900
H939        H  0.96664712  0.20592489  0.94578279     0.13300
H940        H  0.88763829  0.14212315  0.48011128     0.13900
C941        C  0.69776960  0.41320346  0.51420424    -0.15700
C942        C  0.67017239  0.42362570  0.48382657    -0.30900
H943        H  0.68706591  0.42354366  0.54493433     0.13300
H944        H  0.67383230  0.40968477  0.95356546     0.13900
loop_ 
_geom_bond_atom_site_label_1 
_geom_bond_atom_site_label_2 
_geom_bond_distance 
_geom_bond_site_symmetry_2 
_ccdc_geom_bond_type 
C1            C3   1.543       .  S
C1            C5   1.538       .  S
C1            C4   1.542       .  S
C1          C446   1.485       .  S
C2            C6   1.546       .  S
C2            C8   1.538       .  S
C2            C7   1.541       .  S
C2          C456   1.484       .  S
C3           C11   1.388       .  A
C3          C478   1.395       .  A
C4           C15   1.386       .  A
C4          C479   1.375       .  A
C5           C19   1.383       .  A
C5          C480   1.376       .  A
C6            C9   1.390       .  A
C6          C475   1.393   1_554  A
C7           C13   1.383       .  A
C7          C476   1.376   1_554  A
C8           C16   1.387       .  A
C8          C477   1.378   1_554  A
C9           H22   1.082       .  S
C9          N482   1.356   1_554  A
N10          C11   1.354       .  A
N10         C481   1.356       .  A
N10         C465   1.443       .  S
C11          H12   1.082       .  S
C13          H23   1.082       .  S
C13          N14   1.357       .  A
N14         C487   1.360   1_554  A
N14         C436   1.445       .  S
C15          H21   1.081       .  S
C15         N486   1.362       .  A
C16          H18   1.082       .  S
C16          N17   1.361       .  A
N17         C491   1.365   1_554  A
N17         C469   1.456       .  S
C19          H20   1.080       .  S
C19         N489   1.362       .  A
C24          C26   1.538       .  S
C24          C28   1.537       .  S
C24          C27   1.547       .  S
C24         C459   1.482       .  S
C25          C29   1.540       .  S
C25          C31   1.545       .  S
C25          C30   1.537       .  S
C25         C449   1.485       .  S
C26          C34   1.385       .  A
C26          C29   1.385       .  A
C27          C38   1.390       .  A
C27          C30   1.376       .  A
C28          C42   1.380       .  A
C28          C31   1.381       .  A
C29          C32   1.384       .  A
C30          C36   1.377       .  A
C31          C39   1.390       .  A
C32          H45   1.083       .  S
C32          N33   1.356       .  A
N33          C34   1.355       .  A
N33         C427   1.439       .  S
C34          H35   1.082       .  S
C36          H46   1.080       .  S
C36          N37   1.358       .  A
N37          C38   1.367       .  A
N37         C418   1.453       .  S
C38          H44   1.081       .  S
C39          H41   1.081       .  S
C39          N40   1.364       .  A
N40          C42   1.355       .  A
N40         C431   1.448       .  S
C42          H43   1.083       .  S
C47          C49   1.547       .  S
C47          C51   1.531       .  S
C47          C50   1.544       .  S
C47         C403   1.494       .  S
C48          C52   1.537       .  S
C48          C54   1.533       .  S
C48          C53   1.519       .  S
C48         C390   1.484       .  S
C49          C57   1.380       .  A
C49         C524   1.393   1_554  A
C50          C61   1.386       .  A
C50         C525   1.379   1_554  A
C51          C65   1.378       .  A
C51         C526   1.381   1_554  A
C52          C55   1.381       .  A
C52         C521   1.389       .  A
C53          C59   1.365       .  A
C53         C522   1.383       .  A
C54          C62   1.378       .  A
C54         C523   1.380       .  A
C55          H68   1.081       .  S
C55         N528   1.354       .  A
N56          C57   1.353   1_556  A
N56         C527   1.354       .  A
N56         C409   1.432       .  S
C57          H58   1.081       .  S
C59          H69   1.083       .  S
C59         N532   1.353       .  A
N60          C61   1.360       .  A
N60         C531   1.355   1_554  A
N60         C380   1.438       .  S
C61          H67   1.081       .  S
C62          H64   1.082       .  S
C62         N535   1.352       .  A
N63          C65   1.363   1_556  A
N63         C534   1.353       .  A
N63         C414   1.442       .  S
C65          H66   1.081       .  S
C70          C72   1.536       .  S
C70          C74   1.532       .  S
C70          C73   1.518       .  S
C70         C393   1.487       .  S
C71          C75   1.545       .  S
C71          C77   1.536       .  S
C71          C76   1.544       .  S
C71         C400   1.492       .  S
C72          C80   1.375       .  A
C72          C75   1.391       .  A
C73          C84   1.367       .  A
C73          C76   1.382       .  A
C74          C88   1.376       .  A
C74          C77   1.382       .  A
C75          C78   1.385       .  A
C76          C82   1.387       .  A
C77          C85   1.382       .  A
C78          H91   1.082       .  S
C78          N79   1.358       .  A
N79          C80   1.349       .  A
N79         C371   1.432       .  S
C80          H81   1.080       .  S
C82          H92   1.081       .  S
C82          N83   1.360       .  A
N83          C84   1.350       .  A
N83         C362   1.433       .  S
C84          H90   1.083       .  S
C85          H87   1.082       .  S
C85          N86   1.363       .  A
N86          C88   1.353       .  A
N86         C375   1.440       .  S
C88          H89   1.082       .  S
O93         Ni99   1.934       .  S
O93         C586   1.280       .  A
O94        Ni589   1.922   1_565  S
O94         C575   1.280       .  A
O95        Ni117   1.894   1_454  S
O95        Ni111   1.934       .  S
O95        Ni571   1.912   1_554  S
O95         H118   0.966       .  S
C96         O113   1.284       .  A
C96         O105   1.281       .  A
C96         C357   1.482       .  S
O97        Ni116   1.920       .  S
O97         C103   1.272       .  A
O98        Ni116   1.942       .  S
O98         C100   1.269   1_665  A
Ni99        O102   1.939       .  S
Ni99        O104   1.949       .  S
Ni99        O567   1.910       .  S
C100        O110   1.296       .  A
C100        C132   1.553       .  S
O101       Ni117   1.930       .  S
O101        C579   1.282       .  A
O102        C107   1.282   1_455  A
C103        O566   1.280   1_554  A
C103        C413   1.469       .  S
O104        C106   1.275       .  A
O105       Ni116   1.922   1_455  S
C106        O112   1.306   1_445  A
C106        C126   1.565   1_545  S
C107        O573   1.282       .  A
C107        C466   1.489       .  S
H108        O581   0.967       .  S
O109       Ni117   1.928   1_464  S
O109       Ni111   1.884   1_565  S
O109       Ni116   1.907   1_455  S
O109        H580   0.967   1_554  S
O110       Ni111   2.018       .  S
Ni111       O115   1.893       .  S
Ni111       O113   1.939   1_545  S
O112       Ni589   2.037   1_565  S
C114        O115   1.268       .  A
C114        O565   1.283   1_554  A
C114        C354   1.474       .  S
Ni117       O566   1.924   1_545  S
Ni117       O584   2.034       .  S
O119       Ni125   1.916       .  S
O119        C140   1.271       .  A
O120       Ni143   1.900   1_565  S
O120        C129   1.272       .  A
O121       Ni125   1.900       .  S
O121       Ni143   1.886   1_455  S
O121       Ni137   1.926       .  S
O121        H144   0.967       .  S
C122        O139   1.279       .  A
C122        O131   1.283       .  A
C122        C349   1.483       .  S
O123       Ni142   1.941       .  S
O123        C129   1.283       .  A
O124       Ni142   1.955       .  S
O124        C126   1.277   1_655  A
Ni125       O128   1.921       .  S
Ni125       O130   1.950       .  S
C126        O136   1.305   1_565  A
O127       Ni143   1.945       .  S
O127        C133   1.285       .  A
O128        C133   1.281   1_455  A
C129        C376   1.477       .  S
O130        C132   1.271       .  A
O131       Ni142   1.936   1_455  S
C132        O138   1.295   1_445  A
C133        C428   1.479       .  S
H134        O135   0.965       .  S
O135       Ni143   1.931   1_465  S
O135       Ni137   1.898   1_565  S
O135       Ni142   1.909   1_455  S
O136       Ni137   2.032       .  S
Ni137       O141   1.935       .  S
Ni137       O139   1.923   1_545  S
O138       Ni143   2.012   1_565  S
C140        O141   1.281       .  A
C140        C346   1.476       .  S
C145        C322   1.480       .  S
C145        C619   1.532       .  S
C145        C621   1.548       .  S
C145        C620   1.544       .  S
C146        C150   1.540       .  S
C146        C152   1.549       .  S
C146        C151   1.529       .  S
C146        C332   1.487       .  S
C147        C617   1.536       .  S
C147        C150   1.382       .  A
C147        C627   1.384       .  A
C148        C617   1.543       .  S
C148        C151   1.376       .  A
C148        C631   1.383   1_554  A
C149        C617   1.547       .  S
C149        C152   1.386       .  A
C149        C635   1.391       .  A
C150        C153   1.383       .  A
C151        C157   1.381       .  A
C152        C160   1.382       .  A
C153        H166   1.081       .  S
C153        N154   1.354       .  A
N154        C627   1.360       .  A
N154        C358   1.438       .  S
C155        C619   1.383       .  A
C155        H156   1.083       .  S
C155        N626   1.358       .  A
C157        H167   1.082       .  S
C157        N158   1.362       .  A
N158        C631   1.361   1_554  A
N158        C439   1.450       .  S
C159        C620   1.385       .  A
C159        H165   1.080       .  S
C159        N630   1.363       .  A
C160        H162   1.081       .  S
C160        N161   1.355       .  A
N161        C635   1.361       .  A
N161        C342   1.447       .  S
C163        C621   1.390       .  A
C163        H164   1.081       .  S
C163        N633   1.361       .  A
C168        C170   1.548       .  S
C168        C172   1.552       .  S
C168        C171   1.535       .  S
C168        C335   1.483       .  S
C169        C173   1.527       .  S
C169        C175   1.540       .  S
C169        C174   1.538       .  S
C169        C325   1.480       .  S
C170        C178   1.389       .  A
C170        C173   1.380       .  A
C171        C182   1.379       .  A
C171        C174   1.377       .  A
C172        C186   1.393       .  A
C172        C175   1.385       .  A
C173        C176   1.377       .  A
C174        C180   1.386       .  A
C175        C183   1.378       .  A
C176        H189   1.083       .  S
C176        N177   1.353       .  A
N177        C178   1.362       .  A
N177        C350   1.438       .  S
C178        H179   1.081       .  S
C180        H190   1.082       .  S
C180        N181   1.362       .  A
N181        C182   1.358       .  A
N181        C421   1.446       .  S
C182        H188   1.082       .  S
C183        H185   1.082       .  S
C183        N184   1.355       .  A
N184        C186   1.363       .  A
N184        C317   1.448       .  S
C186        H187   1.081       .  S
C191        C193   1.542       .  S
C191        C195   1.551       .  S
C191        C194   1.541       .  S
C191        C304   1.497       .  S
C192        C196   1.516       .  S
C192        C198   1.545       .  S
C192        C197   1.539       .  S
C192        C294   1.488       .  S
C193        C201   1.388       .  A
C193        C668   1.375       .  A
C194        C205   1.380       .  A
C194        C669   1.388       .  A
C195        C209   1.396       .  A
C195        C670   1.403       .  A
C196        C199   1.370       .  A
C196        C665   1.373       .  A
C197        C203   1.378       .  A
C197        C666   1.383       .  A
C198        C206   1.382       .  A
C198        C667   1.403       .  A
C199        H212   1.083       .  S
C199        N672   1.356       .  A
N200        C201   1.363       .  A
N200        C671   1.348       .  A
N200        C313   1.433       .  S
C201        H202   1.082       .  S
C203        H213   1.081       .  S
C203        N676   1.361       .  A
N204        C205   1.361       .  A
N204        C675   1.360   1_554  A
N204        C383   1.442       .  S
C205        H211   1.082       .  S
C206        H208   1.083       .  S
C206        N679   1.346       .  A
N207        C209   1.357       .  A
N207        C678   1.339   1_554  A
N207        C353   1.438   1_554  S
C209        H210   1.081       .  S
C214        C216   1.518       .  S
C214        C218   1.546       .  S
C214        C217   1.534       .  S
C214        C297   1.485       .  S
C215        C219   1.527       .  S
C215        C221   1.545       .  S
C215        C220   1.536       .  S
C215        C307   1.494       .  S
C216        C224   1.377       .  A
C216        C219   1.373       .  A
C217        C228   1.375       .  A
C217        C220   1.385       .  A
C218        C232   1.386       .  A
C218        C221   1.404       .  A
C219        C222   1.376       .  A
C220        C226   1.375       .  A
C221        C229   1.385       .  A
C222        H235   1.083       .  S
C222        N223   1.355       .  A
N223        C224   1.355       .  A
N223        C290   1.430       .  S
C224        H225   1.083       .  S
C226        H236   1.082       .  S
C226        N227   1.358       .  A
N227        C228   1.359       .  A
N227        C365   1.437       .  S
C228        H234   1.081       .  S
C229        H231   1.080       .  S
C229        N230   1.360       .  A
N230        C232   1.350       .  A
N230        C345   1.449       .  S
C232        H233   1.083       .  S
O237       Ni243   1.928       .  S
O237        C730   1.275       .  A
O238       Ni261   1.919       .  S
O238        C247   1.274   1_556  A
O239       Ni261   1.898   1_554  S
O239       Ni255   1.931       .  S
O239       Ni715   1.895   1_554  S
O239        H262   0.967       .  S
C240        O257   1.287       .  A
C240        O249   1.278       .  A
C240        C314   1.474       .  S
O241       Ni260   1.934       .  S
O241        C247   1.278       .  A
O242       Ni260   1.940       .  S
O242        C244   1.274       .  A
Ni243       O246   1.918       .  S
Ni243       O248   1.950       .  S
Ni243       O711   1.899       .  S
C244        O254   1.297       .  A
C244        C276   1.545       .  S
O245       Ni261   1.930       .  S
O245        C723   1.281       .  A
O246        C251   1.281       .  A
C247        C341   1.489       .  S
O248        C250   1.273       .  A
O249       Ni260   1.919       .  S
C250        O256   1.298       .  A
C250        C270   1.554       .  S
C251        O717   1.280       .  A
C251        C410   1.465       .  S
H252        O725   0.966       .  S
O253       Ni261   1.931   1_554  S
O253       Ni255   1.907       .  S
O253       Ni260   1.910       .  S
O253        H724   0.969   1_554  S
O254       Ni255   2.012       .  S
Ni255       O259   1.949       .  S
Ni255       O257   1.934       .  S
O256       Ni733   2.015       .  S
C258        O259   1.283   1_556  A
C258        O709   1.274       .  A
C258        C470   1.490       .  S
Ni261       O728   2.019       .  S
O263       Ni269   1.943       .  S
O263        C284   1.281       .  A
O264       Ni287   1.931       .  S
O264        C273   1.278       .  A
O265       Ni269   1.921       .  S
O265       Ni287   1.903       .  S
O265       Ni281   1.929       .  S
O265        H288   0.966       .  S
C266        O283   1.281       .  A
C266        O275   1.279       .  A
C266        C289   1.469       .  S
O267       Ni286   1.923       .  S
O267        C273   1.277       .  A
O268       Ni286   1.951       .  S
O268        C270   1.275       .  A
Ni269       O272   1.926       .  S
Ni269       O274   1.948       .  S
C270        O280   1.299       .  A
O271       Ni287   1.921       .  S
O271        C277   1.282       .  A
O272        C277   1.278       .  A
C273        C318   1.491       .  S
O274        C276   1.276       .  A
O275       Ni286   1.915       .  S
C276        O282   1.296       .  A
C277        C372   1.474       .  S
H278        O279   0.966       .  S
O279       Ni287   1.928       .  S
O279       Ni281   1.896       .  S
O279       Ni286   1.908       .  S
O280       Ni281   2.014       .  S
Ni281       O285   1.912       .  S
Ni281       O283   1.931       .  S
O282       Ni287   2.004       .  S
C284        O285   1.275       .  A
C284        C432   1.487       .  S
C289        C290   1.342       .  D
C289        H291   1.086       .  S
C290        H292   1.087       .  S
C293        C294   1.401       .  A
C293        C298   1.387       .  A
C293        H299   1.081       .  S
C294        C295   1.400       .  A
C295        C296   1.375       .  A
C295        H300   1.082       .  S
C296        C297   1.399       .  A
C296        H301   1.083       .  S
C297        C298   1.403       .  A
C298        H302   1.081       .  S
C303        C304   1.400       .  A
C303        C308   1.384       .  A
C303        H309   1.083       .  S
C304        C305   1.405       .  A
C305        C306   1.386       .  A
C305        H310   1.080       .  S
C306        C307   1.400       .  A
C306        H311   1.081       .  S
C307        C308   1.404       .  A
C308        H312   1.083       .  S
C313        C314   1.335       .  D
C313        H315   1.087       .  S
C314        H316   1.087       .  S
C317        C318   1.351       .  D
C317        H319   1.087       .  S
C318        H320   1.085       .  S
C321        C322   1.397       .  A
C321        C326   1.378       .  A
C321        H327   1.081       .  S
C322        C323   1.400       .  A
C323        C324   1.378       .  A
C323        H328   1.081       .  S
C324        C325   1.400       .  A
C324        H329   1.081       .  S
C325        C326   1.403       .  A
C326        H330   1.081       .  S
C331        C332   1.399       .  A
C331        C336   1.382       .  A
C331        H337   1.081       .  S
C332        C333   1.398       .  A
C333        C334   1.379       .  A
C333        H338   1.080       .  S
C334        C335   1.401       .  A
C334        H339   1.080       .  S
C335        C336   1.403       .  A
C336        H340   1.080       .  S
C341        C342   1.350       .  D
C341        H815   1.085   1_554  S
C342        H344   1.087       .  S
H343        C813   1.085       .  S
C345        C346   1.342       .  D
C345        H347   1.087       .  S
C346        H348   1.083       .  S
C349        C350   1.343       .  D
C349        H351   1.086       .  S
C350        H352   1.087       .  S
C353        C354   1.337   1_556  D
C353        H827   1.087       .  S
C354        H356   1.085       .  S
H355        C825   1.087       .  S
C357        C358   1.344       .  D
C357        H359   1.086       .  S
C358        H360   1.087       .  S
C361        C362   1.402       .  A
C361        C366   1.397   1_565  A
C361        H367   1.082       .  S
C362        C363   1.403   1_565  A
C363        C364   1.392       .  A
C363        H368   1.083       .  S
C364        C365   1.404       .  A
C364        H369   1.082       .  S
C365        C366   1.406       .  A
C366        H370   1.082       .  S
C371        C372   1.337       .  D
C371        H373   1.088       .  S
C372        H374   1.087       .  S
C375        C376   1.343       .  D
C375        H377   1.087       .  S
C376        H378   1.085       .  S
C379        C380   1.405       .  A
C379        C384   1.403   1_565  A
C379        H385   1.082       .  S
C380        C381   1.402   1_564  A
C381        C382   1.389       .  A
C381        H386   1.082       .  S
C382        C383   1.405   1_556  A
C382        H387   1.081       .  S
C383        C384   1.408       .  A
C384        H388   1.082       .  S
C389        C390   1.400       .  A
C389        C394   1.376       .  A
C389        H395   1.082       .  S
C390        C391   1.398       .  A
C391        C392   1.382       .  A
C391        H396   1.080       .  S
C392        C393   1.401       .  A
C392        H397   1.075       .  S
C393        C394   1.401       .  A
C394        H398   1.083       .  S
C399        C400   1.401       .  A
C399        C404   1.383       .  A
C399        H405   1.080       .  S
C400        C401   1.402       .  A
C401        C402   1.386       .  A
C401        H406   1.083       .  S
C402        C403   1.402       .  A
C402        H407   1.080       .  S
C403        C404   1.401       .  A
C404        H408   1.081       .  S
C409        C882   1.342       .  D
C409        H883   1.087   1_556  S
C410        C881   1.340       .  D
C410        H884   1.086       .  S
H411        C881   1.088       .  S
H412        C882   1.086       .  S
C413        C414   1.339   1_554  D
C413        H415   1.084       .  S
C414        H888   1.087       .  S
H416        C886   1.087       .  S
C417        C418   1.408   1_455  A
C417        C422   1.404       .  A
C417        H423   1.081       .  S
C418        C419   1.412       .  A
C419        C420   1.400   1_655  A
C419        H424   1.080       .  S
C420        C421   1.403       .  A
C420        H425   1.083       .  S
C421        C422   1.407       .  A
C422        H426   1.082       .  S
C427        C428   1.348       .  D
C427        H429   1.087       .  S
C428        H430   1.086       .  S
C431        C432   1.348       .  D
C431        H433   1.087       .  S
C432        H434   1.085       .  S
C435        C436   1.407       .  A
C435        C440   1.402   1_655  A
C435        H441   1.082       .  S
C436        C909   1.404   1_654  A
C437        C908   1.407   1_455  A
C437        C910   1.403       .  A
C437        H442   1.082       .  S
C438        C439   1.410   1_556  A
C438        C909   1.401       .  A
C438        H915   1.081       .  S
C439        C440   1.408       .  A
C440        H444   1.082       .  S
H443        C910   1.080       .  S
C445        C446   1.397       .  A
C445        C450   1.372       .  A
C445        H451   1.082       .  S
C446        C447   1.404       .  A
C447        C448   1.384       .  A
C447        H452   1.079       .  S
C448        C449   1.398       .  A
C448        H453   1.079       .  S
C449        C450   1.402       .  A
C450        H454   1.082       .  S
C455        C456   1.398       .  A
C455        C460   1.382       .  A
C455        H461   1.080       .  S
C456        C457   1.400       .  A
C457        C458   1.374       .  A
C457        H462   1.083       .  S
C458        C459   1.399       .  A
C458        H463   1.082       .  S
C459        C460   1.405       .  A
C460        H464   1.079       .  S
C465        C466   1.348       .  D
C465        H467   1.086       .  S
C466        H940   1.087       .  S
H468        C938   1.087       .  S
C469        C470   1.350   1_554  D
C469        H471   1.086       .  S
C470        H944   1.084       .  S
H472        C942   1.083       .  S
C473        C475   1.542       .  S
C473        C477   1.544       .  S
C473        C476   1.542       .  S
C473        C918   1.484       .  S
C474        C478   1.545       .  S
C474        C480   1.538       .  S
C474        C479   1.541       .  S
C474        C928   1.479       .  S
C475        C483   1.389       .  A
C476        C487   1.387       .  A
C477        C491   1.387       .  A
C478        C481   1.390       .  A
C479        C485   1.384       .  A
C480        C488   1.387       .  A
C481        H494   1.082       .  S
N482        C483   1.354       .  A
N482        C937   1.444       .  S
C483        H484   1.082       .  S
C485        H495   1.081       .  S
C485        N486   1.360       .  A
N486        C908   1.451       .  S
C487        H493   1.082       .  S
C488        H490   1.083       .  S
C488        N489   1.359       .  A
N489        C941   1.452       .  S
C491        H492   1.080       .  S
C496        C498   1.532       .  S
C496        C500   1.538       .  S
C496        C499   1.548       .  S
C496        C931   1.479       .  S
C497        C501   1.540       .  S
C497        C503   1.544       .  S
C497        C502   1.538       .  S
C497        C921   1.482       .  S
C498        C506   1.383       .  A
C498        C501   1.377       .  A
C499        C510   1.388       .  A
C499        C502   1.377       .  A
C500        C514   1.382       .  A
C500        C503   1.392       .  A
C501        C504   1.384       .  A
C502        C508   1.381       .  A
C503        C511   1.391       .  A
C504        H517   1.082       .  S
C504        N505   1.359       .  A
N505        C506   1.355       .  A
N505        C899   1.440       .  S
C506        H507   1.082       .  S
C508        H518   1.081       .  S
C508        N509   1.361       .  A
N509        C510   1.365       .  A
N509        C890   1.455       .  S
C510        H516   1.081       .  S
C511        H513   1.081       .  S
C511        N512   1.358       .  A
N512        C514   1.352       .  A
N512        C903   1.445       .  S
C514        H515   1.083       .  S
C519        C521   1.542       .  S
C519        C523   1.529       .  S
C519        C522   1.543       .  S
C519        C875   1.492       .  S
C520        C524   1.537       .  S
C520        C526   1.538       .  S
C520        C525   1.519       .  S
C520        C862   1.485       .  S
C521        C529   1.378       .  A
C522        C533   1.384       .  A
C523        C537   1.374       .  A
C524        C527   1.381       .  A
C525        C531   1.368       .  A
C526        C534   1.381       .  A
C527        H540   1.081       .  S
N528        C529   1.351       .  A
N528        C881   1.430       .  S
C529        H530   1.081       .  S
C531        H541   1.082       .  S
N532        C533   1.361       .  A
N532        C852   1.433       .  S
C533        H539   1.082       .  S
C534        H536   1.082       .  S
N535        C537   1.363       .  A
N535        C886   1.439       .  S
C537        H538   1.081       .  S
C542        C544   1.538       .  S
C542        C546   1.534       .  S
C542        C545   1.517       .  S
C542        C865   1.488       .  S
C543        C547   1.549       .  S
C543        C549   1.533       .  S
C543        C548   1.535       .  S
C543        C872   1.489       .  S
C544        C552   1.374       .  A
C544        C547   1.394       .  A
C545        C556   1.366       .  A
C545        C548   1.378       .  A
C546        C560   1.377       .  A
C546        C549   1.382       .  A
C547        C550   1.388       .  A
C548        C554   1.380       .  A
C549        C557   1.380       .  A
C550        H563   1.082       .  S
C550        N551   1.360       .  A
N551        C552   1.348       .  A
N551        C843   1.435       .  S
C552        H553   1.079       .  S
C554        H564   1.082       .  S
C554        N555   1.355       .  A
N555        C556   1.352       .  A
N555        C834   1.427       .  S
C556        H562   1.083       .  S
C557        H559   1.081       .  S
C557        N558   1.362       .  A
N558        C560   1.353       .  A
N558        C847   1.439       .  S
C560        H561   1.082       .  S
O565       Ni571   1.941       .  S
O567       Ni589   1.893   1_455  S
O567       Ni583   1.933       .  S
O567        H590   0.966       .  S
C568        O585   1.284       .  A
C568        O577   1.281       .  A
C568        C829   1.481       .  S
O569       Ni588   1.912       .  S
O569        C575   1.270       .  A
O570       Ni588   1.943       .  S
O570        C572   1.270   1_665  A
Ni571       O574   1.942       .  S
Ni571       O576   1.962       .  S
C572        O582   1.297       .  A
C572        C604   1.557       .  S
O573       Ni589   1.930       .  S
O574        C579   1.283   1_455  A
C575        C885   1.464       .  S
O576        C578   1.279       .  A
O577       Ni588   1.920   1_455  S
C578        O584   1.305   1_455  A
C578        C598   1.571       .  S
C579        C938   1.490       .  S
O581       Ni589   1.928   1_465  S
O581       Ni583   1.881   1_565  S
O581       Ni588   1.906   1_455  S
O582       Ni583   2.024       .  S
Ni583       O587   1.893       .  S
Ni583       O585   1.937   1_545  S
C586        O587   1.270       .  A
C586        C826   1.468       .  S
O591       Ni597   1.919       .  S
O591        C612   1.272       .  A
O592       Ni615   1.898   1_565  S
O592        C601   1.271       .  A
O593       Ni597   1.902       .  S
O593       Ni615   1.885   1_455  S
O593       Ni609   1.927       .  S
O593        H616   0.967       .  S
C594        O611   1.280       .  A
C594        O603   1.283       .  A
C594        C821   1.490       .  S
O595       Ni614   1.939       .  S
O595        C601   1.283       .  A
O596       Ni614   1.958       .  S
O596        C598   1.278   1_665  A
Ni597       O600   1.923       .  S
Ni597       O602   1.955       .  S
C598        O608   1.304       .  A
O599       Ni615   1.947       .  S
O599        C605   1.286       .  A
O600        C605   1.281   1_455  A
C601        C848   1.475       .  S
O602        C604   1.272       .  A
O603       Ni614   1.941   1_455  S
C604        O610   1.295   1_455  A
C605        C900   1.480       .  S
H606        O607   0.965       .  S
O607       Ni615   1.934   1_465  S
O607       Ni609   1.894   1_565  S
O607       Ni614   1.909   1_455  S
O608       Ni609   2.036       .  S
Ni609       O613   1.920       .  S
Ni609       O611   1.926   1_545  S
O610       Ni615   2.015       .  S
C612        O613   1.278       .  A
C612        C818   1.467       .  S
C617        C794   1.485   1_554  S
C618        C622   1.543       .  S
C618        C624   1.547       .  S
C618        C623   1.529       .  S
C618        C804   1.485       .  S
C619        C622   1.380       .  A
C620        C623   1.375       .  A
C621        C624   1.386       .  A
C622        C625   1.384       .  A
C623        C629   1.379       .  A
C624        C632   1.382       .  A
C625        H638   1.081       .  S
C625        N626   1.353       .  A
N626        C830   1.436       .  S
C627        H628   1.082   1_554  S
C629        H639   1.081       .  S
C629        N630   1.363       .  A
N630        C911   1.454       .  S
C631        H637   1.080       .  S
C632        H634   1.081       .  S
C632        N633   1.355       .  A
N633        C814   1.447       .  S
C635        H636   1.081   1_554  S
C640        C642   1.552       .  S
C640        C644   1.547       .  S
C640        C643   1.535       .  S
C640        C807   1.480       .  S
C641        C645   1.531       .  S
C641        C647   1.547       .  S
C641        C646   1.542       .  S
C641        C797   1.482       .  S
C642        C650   1.393       .  A
C642        C645   1.381       .  A
C643        C654   1.380       .  A
C643        C646   1.376       .  A
C644        C658   1.393       .  A
C644        C647   1.382       .  A
C645        C648   1.380       .  A
C646        C652   1.389       .  A
C647        C655   1.383       .  A
C648        H661   1.083       .  S
C648        N649   1.354       .  A
N649        C650   1.363       .  A
N649        C822   1.443       .  S
C650        H651   1.081       .  S
C652        H662   1.081       .  S
C652        N653   1.364       .  A
N653        C654   1.358       .  A
N653        C893   1.450       .  S
C654        H660   1.082       .  S
C655        H657   1.082       .  S
C655        N656   1.358       .  A
N656        C658   1.361       .  A
N656        C789   1.450       .  S
C658        H659   1.081       .  S
C663        C665   1.524       .  S
C663        C667   1.537       .  S
C663        C666   1.531       .  S
C663        C776   1.485       .  S
C664        C668   1.506   1_556  S
C664        C670   1.532   1_556  S
C664        C669   1.535   1_556  S
C664        C766   1.489       .  S
C665        C673   1.377       .  A
C666        C677   1.370       .  A
C667        C681   1.383       .  A
C668        C671   1.368       .  A
C669        C675   1.371   1_554  A
C670        C678   1.376   1_554  A
C671        H684   1.083   1_554  S
N672        C673   1.352       .  A
N672        C785   1.426       .  S
C673        H674   1.083       .  S
C675        H685   1.081       .  S
N676        C677   1.356       .  A
N676        C855   1.438       .  S
C677        H683   1.081       .  S
C678        H680   1.083       .  S
N679        C681   1.354       .  A
N679        C825   1.438       .  S
C681        H682   1.079       .  S
C686        C688   1.519       .  S
C686        C690   1.544       .  S
C686        C689   1.536       .  S
C686        C769   1.485       .  S
C687        C691   1.526       .  S
C687        C693   1.537       .  S
C687        C692   1.531       .  S
C687        C779   1.487       .  S
C688        C696   1.375       .  A
C688        C691   1.375       .  A
C689        C700   1.374       .  A
C689        C692   1.385       .  A
C690        C704   1.384       .  A
C690        C693   1.399       .  A
C691        C694   1.375       .  A
C692        C698   1.373       .  A
C693        C701   1.381       .  A
C694        H707   1.083       .  S
C694        N695   1.355       .  A
N695        C696   1.356       .  A
N695        C762   1.428       .  S
C696        H697   1.083       .  S
C698        H708   1.082       .  S
C698        N699   1.354       .  A
N699        C700   1.357       .  A
N699        C837   1.432       .  S
C700        H706   1.081       .  S
C701        H703   1.079       .  S
C701        N702   1.356       .  A
N702        C704   1.350       .  A
N702        C817   1.442       .  S
C704        H705   1.083       .  S
O709       Ni715   1.921       .  S
O710       Ni733   1.920       .  S
O710        C719   1.276       .  A
O711       Ni733   1.899       .  S
O711       Ni727   1.920       .  S
O711        H734   0.966       .  S
C712        O729   1.277       .  A
C712        O721   1.282       .  A
C712        C786   1.463       .  S
O713       Ni732   1.935       .  S
O713        C719   1.279       .  A
O714       Ni732   1.944       .  S
O714        C716   1.274       .  A
Ni715       O718   1.919       .  S
Ni715       O720   1.949       .  S
C716        O726   1.300       .  A
C716        C748   1.554       .  S
O717       Ni733   1.926       .  S
O718        C723   1.280       .  A
C719        C813   1.488       .  S
O720        C722   1.273       .  A
O721       Ni732   1.924       .  S
C722        O728   1.300       .  A
C722        C742   1.558       .  S
C723        C882   1.470       .  S
O725       Ni733   1.924       .  S
O725       Ni727   1.902       .  S
O725       Ni732   1.906       .  S
O726       Ni727   2.021       .  S
Ni727       O731   1.933       .  S
Ni727       O729   1.908       .  S
C730        O731   1.279       .  A
C730        C942   1.483       .  S
O735       Ni741   1.941       .  S
O735        C756   1.281       .  A
O736       Ni759   1.938       .  S
O736        C745   1.281       .  A
O737       Ni741   1.918       .  S
O737       Ni759   1.902       .  S
O737       Ni753   1.930       .  S
O737        H760   0.966       .  S
C738        O755   1.279       .  A
C738        O747   1.279       .  A
C738        C761   1.466       .  S
O739       Ni758   1.921       .  S
O739        C745   1.276       .  A
O740       Ni758   1.955       .  S
O740        C742   1.275       .  A
Ni741       O744   1.922       .  S
Ni741       O746   1.948       .  S
C742        O752   1.299       .  A
O743       Ni759   1.929       .  S
O743        C749   1.285       .  A
O744        C749   1.278       .  A
C745        C790   1.495       .  S
O746        C748   1.276       .  A
O747       Ni758   1.914       .  S
C748        O754   1.300       .  A
C749        C844   1.474       .  S
H750        O751   0.966       .  S
O751       Ni759   1.933       .  S
O751       Ni753   1.898       .  S
O751       Ni758   1.908       .  S
O752       Ni753   2.016       .  S
Ni753       O757   1.910       .  S
Ni753       O755   1.927       .  S
O754       Ni759   2.018       .  S
C756        O757   1.274       .  A
C756        C904   1.484       .  S
C761        C762   1.341       .  D
C761        H763   1.086       .  S
C762        H764   1.088       .  S
C765        C766   1.400       .  A
C765        C770   1.386       .  A
C765        H771   1.081       .  S
C766        C767   1.404       .  A
C767        C768   1.373       .  A
C767        H772   1.082       .  S
C768        C769   1.398       .  A
C768        H773   1.083       .  S
C769        C770   1.401       .  A
C770        H774   1.079       .  S
C775        C776   1.401       .  A
C775        C780   1.375       .  A
C775        H781   1.083       .  S
C776        C777   1.400       .  A
C777        C778   1.383       .  A
C777        H782   1.080       .  S
C778        C779   1.402       .  A
C778        H783   1.080       .  S
C779        C780   1.399       .  A
C780        H784   1.083       .  S
C785        C786   1.337       .  D
C785        H787   1.087       .  S
C786        H788   1.087       .  S
C789        C790   1.356       .  D
C789        H791   1.087       .  S
C790        H792   1.085       .  S
C793        C794   1.396       .  A
C793        C798   1.378       .  A
C793        H799   1.081       .  S
C794        C795   1.401       .  A
C795        C796   1.381       .  A
C795        H800   1.081       .  S
C796        C797   1.400       .  A
C796        H801   1.081       .  S
C797        C798   1.403       .  A
C798        H802   1.081       .  S
C803        C804   1.398       .  A
C803        C808   1.379       .  A
C803        H809   1.080       .  S
C804        C805   1.396       .  A
C805        C806   1.379       .  A
C805        H810   1.080       .  S
C806        C807   1.405       .  A
C806        H811   1.080       .  S
C807        C808   1.400       .  A
C808        H812   1.080       .  S
C813        C814   1.350       .  D
C814        H816   1.087       .  S
C817        C818   1.341       .  D
C817        H819   1.087       .  S
C818        H820   1.083       .  S
C821        C822   1.347       .  D
C821        H823   1.086       .  S
C822        H824   1.086       .  S
C825        C826   1.341       .  D
C826        H828   1.083       .  S
C829        C830   1.343       .  D
C829        H831   1.086       .  S
C830        H832   1.087       .  S
C833        C834   1.402       .  A
C833        C838   1.396   1_565  A
C833        H839   1.083       .  S
C834        C835   1.400   1_565  A
C835        C836   1.387       .  A
C835        H840   1.083       .  S
C836        C837   1.403       .  A
C836        H841   1.082       .  S
C837        C838   1.405       .  A
C838        H842   1.082       .  S
C843        C844   1.336       .  D
C843        H845   1.088       .  S
C844        H846   1.087       .  S
C847        C848   1.342       .  D
C847        H849   1.087       .  S
C848        H850   1.085       .  S
C851        C852   1.401       .  A
C851        C856   1.397   1_565  A
C851        H857   1.082       .  S
C852        C853   1.403   1_565  A
C853        C854   1.391       .  A
C853        H858   1.083       .  S
C854        C855   1.404       .  A
C854        H859   1.081       .  S
C855        C856   1.408       .  A
C856        H860   1.082       .  S
C861        C862   1.401       .  A
C861        C866   1.375       .  A
C861        H867   1.081       .  S
C862        C863   1.400       .  A
C863        C864   1.384       .  A
C863        H868   1.080       .  S
C864        C865   1.401       .  A
C864        H869   1.076       .  S
C865        C866   1.399       .  A
C866        H870   1.082       .  S
C871        C872   1.404       .  A
C871        C876   1.384       .  A
C871        H877   1.082       .  S
C872        C873   1.397       .  A
C873        C874   1.383       .  A
C873        H878   1.082       .  S
C874        C875   1.404       .  A
C874        H879   1.080       .  S
C875        C876   1.399       .  A
C876        H880   1.081       .  S
C885        C886   1.336       .  D
C885        H887   1.083       .  S
C889        C890   1.409   1_455  A
C889        C894   1.404       .  A
C889        H895   1.081       .  S
C890        C891   1.411       .  A
C891        C892   1.402   1_655  A
C891        H896   1.081       .  S
C892        C893   1.405       .  A
C892        H897   1.082       .  S
C893        C894   1.408       .  A
C894        H898   1.082       .  S
C899        C900   1.350       .  D
C899        H901   1.087       .  S
C900        H902   1.086       .  S
C903        C904   1.347       .  D
C903        H905   1.087       .  S
C904        H906   1.085       .  S
C907        C908   1.408       .  A
C907        C912   1.401   1_655  A
C907        H913   1.082       .  S
C909        H914   1.082       .  S
C910        C911   1.411       .  A
C911        C912   1.409       .  A
C912        H916   1.080       .  S
C917        C918   1.400       .  A
C917        C922   1.373       .  A
C917        H923   1.081       .  S
C918        C919   1.403       .  A
C919        C920   1.382       .  A
C919        H924   1.080       .  S
C920        C921   1.400       .  A
C920        H925   1.080       .  S
C921        C922   1.398       .  A
C922        H926   1.083       .  S
C927        C928   1.397       .  A
C927        C932   1.382       .  A
C927        H933   1.079       .  S
C928        C929   1.400       .  A
C929        C930   1.369       .  A
C929        H934   1.083       .  S
C930        C931   1.397       .  A
C930        H935   1.082       .  S
C931        C932   1.405       .  A
C932        H936   1.080       .  S
C937        C938   1.349       .  D
C937        H939   1.086       .  S
C941        C942   1.349       .  D
C941        H943   1.087       .  S
