geometry optimzed in LAMMPS
_audit_creation_date              2020-11-30 
_audit_creation_method            'lammps2cif' 
_symmetry_space_group_name_H-M    'P1' 
_symmetry_Int_Tables_number       1 
_symmetry_cell_setting            triclinic 
loop_ 
_symmetry_equiv_pos_as_xyz 
  x,y,z 
_cell_length_a                    29.98746942 
_cell_length_b                    29.99158765537563 
_cell_length_c                    32.891514623490586 
_cell_angle_alpha                 90.17474751620581 
_cell_angle_beta                  90.34403062185872 
_cell_angle_gamma                 120.39321436940853 
loop_ 
_atom_site_label 
_atom_site_type_symbol 
_atom_site_fract_x 
_atom_site_fract_y 
_atom_site_fract_z 
_atom_site_charge 
C1          C  0.27135471  0.26504912  0.99028778     0.03100
C2          C  0.29110350  0.29874000  0.45981333    -0.13000
C3          C  0.33612299  0.34723764  0.46216433     0.00600
C4          C  0.35317933  0.37261628  0.49986233    -0.11500
C5          C  0.33564196  0.33364241  0.03459361     0.03100
C6          C  0.29225619  0.28366457  0.02950561    -0.11000
H7          H  0.27829639  0.27882318  0.43078448     0.08700
H8          H  0.38910433  0.40934165  0.50166088     0.06200
H9          H  0.27420720  0.25990149  0.05590662     0.06100
C10         C  0.80151601  0.80612064  0.01166237     0.03100
C11         C  0.79056831  0.76985092  0.47105521    -0.13000
C12         C  0.74138368  0.72482206  0.46811245     0.00600
C13         C  0.71217741  0.70507127  0.50356206    -0.11500
C14         C  0.73150800  0.72967689  0.04238427     0.03100
C15         C  0.77814344  0.77660703  0.04613218    -0.11000
H16         H  0.81296051  0.78641035  0.44379253     0.08700
H17         H  0.67436371  0.67040932  0.50189034     0.06200
H18         H  0.79581362  0.79035335  0.07583478     0.06100
N19         N  0.54199351  0.51911336  0.18923936    -0.36600
N20         N  0.61791806  0.58911236  0.25141719    -0.57200
N21         N  0.54790076  0.52569170  0.31254760    -0.36600
N22         N  0.47485573  0.45288713  0.25055961    -0.57200
C23         C  0.58379666  0.54898773  0.16632398     0.27000
C24         C  0.50854295  0.47806927  0.16595280     0.27000
C25         C  0.58975624  0.55702747  0.33592143     0.27000
C26         C  0.51603719  0.48459866  0.33543026     0.27000
C27         C  0.63832754  0.61755202  0.21770742     0.35600
C28         C  0.64130587  0.62116646  0.28352157     0.35600
C29         C  0.44252296  0.43092002  0.21839428     0.35600
C30         C  0.44591220  0.43394392  0.28417228     0.35600
C31         C  0.57688230  0.52678054  0.12798268    -0.21900
C32         C  0.52938760  0.48211324  0.12774636    -0.21900
C33         C  0.58434716  0.53557189  0.37408345    -0.21900
C34         C  0.53792211  0.48977830  0.37375219    -0.21900
C35         C  0.67573937  0.66768157  0.22844141    -0.23000
C36         C  0.67764614  0.66990899  0.27022784    -0.22900
C37         C  0.39294720  0.39689738  0.23159261    -0.23000
C38         C  0.39503453  0.39890146  0.27337526    -0.22900
C39         C  0.62538633  0.59841818  0.17740979    -0.18300
C40         C  0.45830238  0.43906836  0.17742106    -0.18300
C41         C  0.46532692  0.44559567  0.32441064    -0.18300
C42         C  0.63083193  0.60618498  0.32460960    -0.18300
H43         H  0.60292237  0.54187277  0.10246355     0.14600
H44         H  0.51186639  0.45606238  0.10213526     0.14600
H45         H  0.61072047  0.55162817  0.39970311     0.14600
H46         H  0.52146914  0.46382846  0.39922876     0.14600
H47         H  0.69929672  0.69934213  0.20827382     0.12900
H48         H  0.70268308  0.70348242  0.28867275     0.12900
H49         H  0.35904294  0.37289796  0.21309371     0.12900
H50         H  0.36289777  0.37667353  0.29349674     0.12900
H51         H  0.53416546  0.53020299  0.21695576     0.26200
H52         H  0.53793928  0.53504567  0.28490794     0.26200
C53         C  0.80728940  0.04317014  0.99759417     0.03100
C54         C  0.78995997  0.04847436  0.03633166    -0.13000
C55         C  0.74364603  0.04964605  0.04004504     0.00600
C56         C  0.71432436  0.04351570  0.00482919    -0.11500
C57         C  0.72543578  0.02845678  0.46388544     0.03100
C58         C  0.77160798  0.02803016  0.46007763    -0.11000
H59         H  0.81290425  0.05279656  0.06321268     0.08700
H60         H  0.67821037  0.04338014  0.00721078     0.06200
H61         H  0.78982685  0.03432718  0.43062192     0.06100
C62         C  0.26730766  0.02920026  0.00665316     0.03100
C63         C  0.29569850  0.03563686  0.04212469    -0.13000
C64         C  0.34388607  0.03914942  0.04011260     0.00600
C65         C  0.36303553  0.03428588  0.00259337    -0.11500
C66         C  0.34758779  0.05700777  0.46865118     0.03100
C67         C  0.30097393  0.05758994  0.47236423    -0.11000
H68         H  0.28102206  0.03942709  0.07119728     0.08700
H69         H  0.40010359  0.03620307  0.00164799     0.06200
H70         H  0.28384696  0.06427060  0.44568472     0.06100
N71         N  0.55026853  0.07236339  0.31557319    -0.36600
N72         N  0.61858779  0.06426220  0.25349499    -0.57200
N73         N  0.55497278  0.06813019  0.19106454    -0.36600
N74         N  0.48336132  0.07013155  0.25323783    -0.57200
C75         C  0.57829663  0.05768350  0.33826409     0.27000
C76         C  0.50895395  0.06400165  0.33817112     0.27000
C77         C  0.58562742  0.05641424  0.16855108     0.27000
C78         C  0.51257811  0.05592399  0.16832596     0.27000
C79         C  0.64627277  0.07060708  0.28767566     0.35600
C80         C  0.64990705  0.07037684  0.22185305     0.35600
C81         C  0.46022735  0.07952716  0.28476311     0.35600
C82         C  0.46168817  0.07534515  0.21886092     0.35600
C83         C  0.55472432  0.04018953  0.37571301    -0.21900
C84         C  0.51123079  0.04440726  0.37569367    -0.21900
C85         C  0.56272394  0.03728298  0.13097345    -0.21900
C86         C  0.51664774  0.03672954  0.13085547    -0.21900
C87         C  0.69538940  0.08050352  0.27772700    -0.23000
C88         C  0.69766574  0.08038369  0.23597377    -0.22900
C89         C  0.42352862  0.09066402  0.27035413    -0.23000
C90         C  0.42434459  0.08790762  0.22859110    -0.22900
C91         C  0.62656252  0.06309012  0.32761331    -0.18300
C92         C  0.46965293  0.07446196  0.32625636    -0.18300
C93         C  0.47161918  0.06437321  0.17908445    -0.18300
C94         C  0.63429252  0.06348461  0.18057064    -0.18300
H95         H  0.56774113  0.02618401  0.40075399     0.14600
H96         H  0.48416538  0.03386561  0.40045050     0.14600
H97         H  0.57747968  0.02464636  0.10626946     0.14600
H98         H  0.48932403  0.02385206  0.10576177     0.14600
H99         H  0.72612407  0.08637509  0.29842755     0.12900
H100        H  0.73031786  0.08609355  0.21810709     0.12900
H101        H  0.39817939  0.09888212  0.28804586     0.12900
H102        H  0.39954742  0.09351503  0.20776442     0.12900
H103        H  0.56203416  0.09212784  0.28823049     0.26200
H104        H  0.56448314  0.08828017  0.21847426     0.26200
C105        C  0.04605536  0.27273861  0.00306121     0.03100
C106        C  0.02167854  0.28132566  0.46619562    -0.13000
C107        C  0.02591974  0.33020851  0.46199973     0.00600
C108        C  0.04860390  0.36716130  0.99683808    -0.11500
C109        C  0.04281874  0.34393721  0.03479754     0.03100
C110        C  0.04196536  0.29702625  0.03791957    -0.11000
H111        H  0.01926426  0.25927374  0.43927745     0.08700
H112        H  0.04938168  0.40363607  0.99486921     0.06200
H113        H  0.03810262  0.27950626  0.06744952     0.06100
C114        C  0.02797732  0.79853626  0.99201661     0.03100
C115        C  0.02631966  0.77587982  0.03008110    -0.13000
C116        C  0.02762232  0.72953931  0.03221526     0.00600
C117        C  0.03185275  0.70733270  0.99591836    -0.11500
C118        C  0.04438469  0.73484186  0.45887361     0.03100
C119        C  0.04166206  0.77999269  0.45670411    -0.11000
H120        H  0.02441811  0.79440989  0.05781366     0.08700
H121        H  0.03348436  0.67204786  0.99688656     0.06200
H122        H  0.03559795  0.79304630  0.42759150     0.06100
N123        N  0.02156248  0.52969135  0.18570551    -0.36600
N124        N  0.01586159  0.59395025  0.24734931    -0.57200
N125        N  0.02046969  0.52409563  0.30918120    -0.36600
N126        N  0.01962317  0.45664870  0.24725515    -0.57200
C127        C  0.01104928  0.56064084  0.16249642     0.27000
C128        C  0.01349017  0.48919302  0.16226461     0.27000
C129        C  0.01043894  0.55519011  0.33238223     0.27000
C130        C  0.01117518  0.48275947  0.33216961     0.28600
C131        C  0.02488996  0.62555800  0.21524792     0.35600
C132        C  0.02583845  0.62326789  0.28113529     0.35600
C133        C  0.03043505  0.43792016  0.21376954     0.35600
C134        C  0.02777627  0.43369801  0.27954839     0.35600
C135        C  0.99584601  0.53930164  0.12392343    -0.21900
C136        C  0.99756235  0.49435155  0.12371038    -0.21900
C137        C  0.99468544  0.53348716  0.37059941    -0.21900
C138        C  0.99508573  0.48781885  0.37043014    -0.21900
C139        C  0.03947132  0.67489049  0.22868556    -0.23000
C140        C  0.04012456  0.67348306  0.27047251    -0.22900
C141        C  0.04465730  0.40215242  0.22476507    -0.23000
C142        C  0.04277515  0.39935774  0.26651012    -0.22900
C143        C  0.01959799  0.60995489  0.17403222    -0.18300
C144        C  0.02504015  0.45052284  0.17334210    -0.18300
C145        C  0.02011038  0.44237516  0.32050179    -0.18300
C146        C  0.01985195  0.60490431  0.32148063    -0.18300
H147        H  0.98588716  0.55518569  0.09826494     0.14600
H148        H  0.98918210  0.46895918  0.09775936     0.14600
H149        H  0.98481286  0.54941404  0.39625633     0.14600
H150        H  0.98545830  0.46174287  0.39583617     0.14600
H151        H  0.04908758  0.70842839  0.21034240     0.12900
H152        H  0.05003527  0.70577580  0.29070105     0.12900
H153        H  0.05500510  0.38013831  0.20477405     0.12900
H154        H  0.05154000  0.37501037  0.28510523     0.12900
H155        H  0.04030650  0.53904270  0.21372370     0.26200
H156        H  0.03908369  0.53433447  0.28139135     0.26200
O157        O  0.94852413  0.96574016  0.47242586    -0.88300
C158        C  0.99224253  0.08280150  0.06235148     0.87700
Mg159      Mg  0.97568366  0.91130333  0.47366963     1.58100
O160        O  0.05227422  0.12126400  0.47258257    -0.88100
O161        O  0.94938952  0.02410713  0.43287586    -0.75400
C162        C  0.21809387  0.02867967  0.00920520     0.92700
O163        O  0.96109305  0.95694222  0.06926844    -0.75200
O164        O  0.17710663  0.98687432  0.01810225    -0.82700
Mg165      Mg  0.91369267  0.98067236  0.02896280     1.58000
C166        C  0.21504673  0.22499676  0.49170834     0.92700
O167        O  0.84910032  0.98465722  0.49991292    -0.81000
H168        H  0.05772291  0.13753254  0.41332618    -0.06300
C169        C  0.13230495  0.08669682  0.05980142     0.87600
O170        O  0.04523676  0.96190385  0.43341253    -0.75500
O171        O  0.97423319  0.06125134  0.02938069    -0.88300
O172        O  0.17201325  0.22072028  0.50124432    -0.81100
C173        C  0.04572436  0.22370312  0.00681559     0.92800
C174        C  0.84519511  0.02358223  0.49019851     0.92600
Mg175      Mg  0.16053129  0.10035971  0.47573868     1.58000
O176        O  0.21802617  0.07012880  0.00126405    -0.81000
O177        O  0.11059000  0.11978382  0.43443710    -0.75200
O178        O  0.00321296  0.18161351  0.00156544    -0.81100
O179        O  0.84934511  0.89654855  0.02327968    -0.82800
O180        O  0.08375358  0.89894140  0.50124069    -0.81100
C181        C  0.07283626  0.12706752  0.43919564     0.87100
O182        O  0.10550639  0.01846300  0.47350728    -0.88300
O183        O  0.12664024  0.10059610  0.02590749    -0.88400
O184        O  0.12160385  0.04061740  0.06593273    -0.75400
Mg185      Mg  0.96997820  0.09419275  0.47363977     1.58000
O186        O  0.08798222  0.22478572  0.01377773    -0.82800
H187        H  0.93033895  0.95230650  0.41337041    -0.06500
O188        O  0.01426065  0.94874464  0.02936675    -0.88100
H189        H  0.01088159  0.93432481  0.08890206    -0.06300
H190        H  0.11698468  0.01474416  0.41413218    -0.06500
C191        C  0.99606196  0.94575528  0.06342121     0.87000
C192        C  0.94173858  0.97907259  0.43867756     0.87600
C193        C  0.09085912  0.99893450  0.43949448     0.87700
H194        H  0.14586274  0.11401672  0.08482640    -0.06500
O195        O  0.03919860  0.11828843  0.06592315    -0.75500
Mg196      Mg  0.09403138  0.96812718  0.02572925     1.58000
H197        H  0.96780603  0.07056369  0.08884889    -0.06500
C198        C  0.85037774  0.85550895  0.01551777     0.92700
O199        O  0.00257581  0.85275939  0.47828328    -0.82700
C200        C  0.04502260  0.85642320  0.48945678     0.92700
O201        O  0.88402987  0.06648831  0.47962671    -0.82700
Mg202      Mg  0.10709444  0.16094237  0.02175224     1.58200
O203        O  0.89218150  0.85581234  0.00856658    -0.81100
O204        O  0.21933135  0.18625969  0.48185044    -0.82800
C205        C  0.02570911  0.64045707  0.35507221    -0.06100
C206        C  0.07263725  0.66445100  0.37667949    -0.17300
C207        C  0.08056712  0.69739099  0.40942364     0.11100
C208        C  0.04019533  0.70556342  0.42160647    -0.06100
C209        C  0.99380548  0.68292291  0.39918393    -0.17300
C210        C  0.98597635  0.65020698  0.36612808     0.11100
S211        S  0.14321221  0.72843243  0.43400008    -0.32300
S212        S  0.92442605  0.62177100  0.33995528    -0.32300
H213        H  0.92430736  0.57814447  0.32421551     0.29100
H214        H  0.14319766  0.77369321  0.44531159     0.29100
H215        H  0.10338994  0.65754759  0.36777102     0.19700
H216        H  0.96287756  0.68941914  0.40835557     0.19700
C217        C  0.02707311  0.70442537  0.07162605    -0.06100
C218        C  0.06734091  0.69442043  0.07946505    -0.17300
C219        C  0.06710811  0.66648615  0.11362722     0.11100
C220        C  0.02527385  0.64692152  0.14098806    -0.06100
C221        C  0.98593446  0.65861539  0.13426696    -0.17300
C222        C  0.98610941  0.68660768  0.09985300     0.11100
S223        S  0.12074101  0.65570570  0.11992255    -0.32300
S224        S  0.93122571  0.69503806  0.09235323    -0.32300
H225        H  0.92898940  0.68905998  0.04983910     0.29100
H226        H  0.11880001  0.65276086  0.16258142     0.29100
H227        H  0.09913934  0.70798389  0.05833046     0.19700
H228        H  0.95353756  0.64360023  0.15489468     0.19700
C229        C  0.03796180  0.36930659  0.07132711    -0.06100
C230        C  0.08094959  0.41601516  0.08404974    -0.17300
C231        C  0.07839220  0.44230890  0.11819637     0.11100
C232        C  0.03173409  0.42141133  0.14000534    -0.06100
C233        C  0.98898971  0.37425854  0.12771105    -0.17300
C234        C  0.99138913  0.34829656  0.09324321     0.11100
S235        S  0.13525066  0.50305700  0.13141190    -0.32300
S236        S  0.93323245  0.29009341  0.07766398    -0.32300
H237        H  0.94207896  0.29748437  0.03563081     0.29100
H238        H  0.12507864  0.50221079  0.17310556     0.29100
H239        H  0.11665924  0.43213791  0.06711572     0.19700
H240        H  0.95297266  0.35879696  0.14412434     0.19700
C241        C  0.02793680  0.35376291  0.42155459    -0.06100
C242        C  0.98325382  0.33274073  0.39696443    -0.17300
C243        C  0.97989153  0.35970834  0.36315819     0.11100
C244        C  0.02242249  0.40878743  0.35319804    -0.06100
C245        C  0.06793244  0.42837347  0.37650258    -0.17300
C246        C  0.07130919  0.40144766  0.41008090     0.11100
S247        S  0.91963158  0.33000293  0.33509243    -0.32300
S248        S  0.13186403  0.43066409  0.43769558    -0.32300
H249        H  0.12638229  0.38415185  0.45232801     0.29100
H250        H  0.92373419  0.37534566  0.31930623     0.29100
H251        H  0.94971037  0.29638539  0.40545934     0.19700
H252        H  0.10091893  0.46558615  0.36886967     0.19700
C253        C  0.43514267  0.07583092  0.35885264    -0.06100
C254        C  0.38401364  0.03441803  0.36199348    -0.17300
C255        C  0.35382664  0.02825787  0.39653056     0.11100
C256        C  0.37455744  0.06469755  0.42885514    -0.06100
C257        C  0.42477407  0.10735241  0.42476687    -0.17300
C258        C  0.45477709  0.11360748  0.39024231     0.11100
S259        S  0.29056710  0.97116329  0.39858436    -0.32300
S260        S  0.51872445  0.16979861  0.38870989    -0.32300
H261        H  0.52223906  0.17260013  0.34608956     0.29100
H262        H  0.29134467  0.96302855  0.44058148     0.29100
H263        H  0.36854965  0.00494023  0.33842989     0.19700
H264        H  0.44119765  0.13564766  0.44916626     0.19700
C265        C  0.37478535  0.04860240  0.07739317    -0.06100
C266        C  0.35623878  0.01022574  0.10725587    -0.17300
C267        C  0.38649992  0.01479929  0.14121061     0.11100
C268        C  0.43577581  0.05941343  0.14593356    -0.06100
C269        C  0.45342121  0.09870867  0.11686160    -0.17300
C270        C  0.42335712  0.09391229  0.08276094     0.11100
S271        S  0.36089468  0.96175344  0.17651705    -0.32300
S272        S  0.44904078  0.14670173  0.04720597    -0.32300
H273        H  0.40094919  0.13987234  0.03494415     0.29100
H274        H  0.40844600  0.96624056  0.18719741     0.29100
H275        H  0.31886793  0.97549490  0.10317607     0.19700
H276        H  0.49125515  0.13294870  0.12052796     0.19700
C277        C  0.65703628  0.05758303  0.36067539    -0.06100
C278        C  0.65872016  0.01176770  0.36240155    -0.17300
C279        C  0.68071503  0.00117815  0.39577507     0.11100
C280        C  0.70169805  0.03733659  0.42801607    -0.06100
C281        C  0.70092296  0.08361198  0.42593465    -0.17300
C282        C  0.67940280  0.09443489  0.39236495     0.11100
S283        S  0.67912959  0.94023376  0.39603526    -0.32300
S284        S  0.68069082  0.15524573  0.39204594    -0.32300
H285        H  0.67970714  0.15960083  0.34954994     0.29100
H286        H  0.67436475  0.93313065  0.43835090     0.29100
H287        H  0.64109180  0.98329959  0.33822136     0.19700
H288        H  0.71759883  0.11162757  0.45051422     0.19700
C289        C  0.66874148  0.06174837  0.14819260    -0.06100
C290        C  0.69215289  0.10304692  0.12079437    -0.17300
C291        C  0.72016278  0.10164105  0.08720906     0.11100
C292        C  0.72485487  0.05765955  0.07994669    -0.06100
C293        C  0.70385248  0.01743384  0.10847633    -0.17300
C294        C  0.67562002  0.01876168  0.14216106     0.11100
S295        S  0.74793376  0.15676531  0.05393356    -0.32300
S296        S  0.64728842  0.96325454  0.17502838    -0.32300
H297        H  0.60348056  0.96606900  0.18568604     0.29100
H298        H  0.78894168  0.15065554  0.04039812     0.29100
H299        H  0.68757591  0.13633874  0.12515124     0.19700
H300        H  0.70681873  0.98334948  0.10318627     0.19700
C301        C  0.66318933  0.64311807  0.35767019    -0.06100
C302        C  0.71019585  0.64674187  0.36900229    -0.17300
C303        C  0.73743626  0.67413247  0.40415633     0.11100
C304        C  0.71791152  0.69947507  0.42832862    -0.06100
C305        C  0.67197729  0.69743037  0.41592030    -0.17300
C306        C  0.64473788  0.66996644  0.38102700     0.11100
S307        S  0.79491110  0.67247185  0.41775286    -0.32300
S308        S  0.58539984  0.66881125  0.36894336    -0.32300
H309        H  0.58669448  0.66195646  0.32678286     0.29100
H310        H  0.78867448  0.67261521  0.46006426     0.29100
H311        H  0.72436584  0.62587243  0.35148670     0.19700
H312        H  0.65663579  0.71673174  0.43410839     0.19700
C313        C  0.70584718  0.69928823  0.07867143    -0.06100
C314        C  0.73009199  0.67749269  0.10092189    -0.17300
C315        C  0.70491626  0.64416861  0.13327880     0.11100
C316        C  0.65492953  0.63341579  0.14393652    -0.06100
C317        C  0.63127610  0.65609178  0.12222487    -0.17300
C318        C  0.65627981  0.68915945  0.08993552     0.11100
S319        S  0.73811581  0.61614761  0.15906947    -0.32300
S320        S  0.62313595  0.71752495  0.06459461    -0.32300
H321        H  0.66796220  0.76418912  0.05461828     0.29100
H322        H  0.69398822  0.57143619  0.17294214     0.29100
H323        H  0.76810880  0.68515401  0.09214498     0.19700
H324        H  0.59302299  0.64802328  0.13070113     0.19700
C325        C  0.36587741  0.37114904  0.42511116    -0.06100
C326        C  0.38440715  0.34419959  0.40245056    -0.17300
C327        C  0.41641012  0.36696241  0.36899113     0.11100
C328        C  0.42973722  0.41759746  0.35792189    -0.06100
C329        C  0.40992438  0.44380646  0.37970784    -0.17300
C330        C  0.37754183  0.42090465  0.41272420     0.11100
S331        S  0.43918074  0.32971974  0.34225374    -0.32300
S332        S  0.35131315  0.45663350  0.43683800    -0.32300
H333        H  0.30423884  0.41305945  0.44800178     0.29100
H334        H  0.48420393  0.37143064  0.32616149     0.29100
H335        H  0.37511052  0.30577759  0.41163293     0.19700
H336        H  0.41963957  0.48241120  0.37066299     0.19700
C337        C  0.35867393  0.35509341  0.07538604    -0.06100
C338        C  0.38547026  0.33475786  0.09610390    -0.17300
C339        C  0.41611140  0.35966171  0.13063774     0.11100
C340        C  0.42073471  0.40648278  0.14474808    -0.06100
C341        C  0.39199790  0.42540502  0.12518286    -0.17300
C342        C  0.36073443  0.40006234  0.09117245     0.11100
S343        S  0.45118469  0.33168877  0.15330757    -0.32300
S344        S  0.32524464  0.42770673  0.06870652    -0.32300
H345        H  0.28518222  0.38127395  0.05204458     0.29100
H346        H  0.45576091  0.35213287  0.19253984     0.29100
H347        H  0.38437191  0.30046972  0.08422609     0.19700
H348        H  0.39483804  0.46092295  0.13602535     0.19700
C349        C  0.26188347  0.27639494  0.49453981     0.03100
C350        C  0.29421381  0.29593230  0.95645142    -0.13000
C351        C  0.33727500  0.34543729  0.96120119     0.00600
C352        C  0.35799019  0.36409856  0.00007849    -0.11500
C353        C  0.32462653  0.35079696  0.53527335     0.03100
C354        C  0.27858657  0.30245486  0.53238735    -0.11000
H355        H  0.27793566  0.28184013  0.92640988     0.08700
H356        H  0.39174324  0.40234564  0.00344151     0.06200
H357        H  0.25635007  0.28481890  0.55952073     0.06100
C358        C  0.80928244  0.79521728  0.50895623     0.03100
C359        C  0.77832774  0.78808267  0.97297977    -0.13000
C360        C  0.73141521  0.74078215  0.96906506     0.00600
C361        C  0.70851448  0.71187891  0.00404170    -0.11500
C362        C  0.73130726  0.72982569  0.54117864     0.03100
C363        C  0.77954222  0.77488853  0.54371299    -0.11000
H364        H  0.79635218  0.81099752  0.94619446     0.08700
H365        H  0.67242979  0.67537439  0.00147557     0.06200
H366        H  0.79355436  0.79459507  0.57271675     0.06100
N367        N  0.52060226  0.55057905  0.69019696    -0.36600
N368        N  0.59431757  0.62054623  0.75307505    -0.57200
N369        N  0.52477520  0.55631584  0.81407447    -0.36600
N370        N  0.45332647  0.48398210  0.75119111    -0.57200
C371        C  0.56385687  0.57912311  0.66832208     0.27000
C372        C  0.48842253  0.50864532  0.66720087     0.27000
C373        C  0.56729377  0.58705372  0.83704305     0.27000
C374        C  0.49459269  0.51370732  0.83616003     0.27000
C375        C  0.61613266  0.64857321  0.71945143     0.35600
C376        C  0.61760635  0.65244368  0.78523020     0.35600
C377        C  0.42164815  0.46077856  0.71885787     0.35600
C378        C  0.42485243  0.46282790  0.78473756     0.35600
C379        C  0.55904969  0.55513396  0.63103511    -0.21900
C380        C  0.51142585  0.51082718  0.63029854    -0.21900
C381        C  0.56386748  0.56384157  0.87413047    -0.21900
C382        C  0.51810063  0.51753551  0.87356804    -0.21900
C383        C  0.65374752  0.69855325  0.73023021    -0.23000
C384        C  0.65457701  0.70102065  0.77203846    -0.22900
C385        C  0.37271136  0.42450652  0.73189928    -0.23000
C386        C  0.37477544  0.42564401  0.77373407    -0.22900
C387        C  0.60583661  0.62825968  0.67949503    -0.18300
C388        C  0.43805075  0.46932834  0.67798495    -0.18300
C389        C  0.44480222  0.47300462  0.82487343    -0.18300
C390        C  0.60799305  0.63663238  0.82616213    -0.18300
H391        H  0.58676663  0.56850920  0.60657365     0.14600
H392        H  0.49555460  0.48332928  0.60539441     0.14600
H393        H  0.59143049  0.57877022  0.89906966     0.14600
H394        H  0.50355243  0.48999498  0.89818063     0.14600
H395        H  0.67860436  0.72966798  0.71008122     0.12900
H396        H  0.68001184  0.73434611  0.79056412     0.12900
H397        H  0.33949768  0.39901656  0.71327034     0.12900
H398        H  0.34336457  0.40111456  0.79376012     0.12900
H399        H  0.51145967  0.56241596  0.71703840     0.26200
H400        H  0.51392428  0.56625105  0.78705434     0.26200
C401        C  0.79446411  0.01983510  0.49411272     0.03100
C402        C  0.77106299  0.01288420  0.53270323    -0.13000
C403        C  0.72571330  0.01570387  0.53702110     0.00600
C404        C  0.70279108  0.02246978  0.50208448    -0.11500
C405        C  0.73078191  0.03676588  0.96663421     0.03100
C406        C  0.77771613  0.03774365  0.96307225    -0.11000
H407        H  0.78955676  0.00819438  0.55942678     0.08700
H408        H  0.66753323  0.02395627  0.50470482     0.06200
H409        H  0.79076581  0.03341827  0.93342473     0.06100
C410        C  0.27568851  0.04798333  0.51032273     0.03100
C411        C  0.29722417  0.03783051  0.54436003    -0.13000
C412        C  0.34449757  0.03926098  0.54136132     0.00600
C413        C  0.36920226  0.04843587  0.50360811    -0.11500
C414        C  0.33508919  0.02727843  0.96639359     0.03100
C415        C  0.28709133  0.02538682  0.96862221    -0.11000
H416        H  0.27787304  0.03007555  0.57341553     0.08700
H417        H  0.40521137  0.04833528  0.50139325     0.06200
H418        H  0.26544226  0.02133701  0.94100917     0.06100
N419        N  0.52183030  0.00671380  0.81364934    -0.36600
N420        N  0.58986326  0.99849950  0.75240942    -0.57200
N421        N  0.52354650  0.00079885  0.69043070    -0.36600
N422        N  0.45214087  0.00231430  0.75199322    -0.57200
C423        C  0.55319268  0.99732511  0.83715712     0.27000
C424        C  0.48144255  0.99921669  0.83694823     0.27000
C425        C  0.55466070  0.99044570  0.66736042     0.27000
C426        C  0.48278873  0.99230287  0.66699845     0.27000
C427        C  0.62007844  0.01006537  0.78589373     0.35600
C428        C  0.62058483  0.00592417  0.72007227     0.35600
C429        C  0.43155727  0.01411422  0.78394535     0.35600
C430        C  0.43297233  0.01191315  0.71803276     0.35600
C431        C  0.53241514  0.98341788  0.87581205    -0.21900
C432        C  0.48713992  0.98454625  0.87564488    -0.21900
C433        C  0.53315625  0.97492799  0.62884523    -0.21900
C434        C  0.48788737  0.97612214  0.62859169    -0.21900
C435        C  0.66993886  0.02357182  0.77486481    -0.23000
C436        C  0.67019573  0.02080131  0.73311124    -0.22900
C437        C  0.39818981  0.03009195  0.77026293    -0.23000
C438        C  0.39905669  0.02870218  0.72847225    -0.22900
C439        C  0.60300415  0.00719925  0.82633302    -0.18300
C440        C  0.44217513  0.00980675  0.82525436    -0.18300
C441        C  0.44413421  0.00406680  0.67774105    -0.18300
C442        C  0.60397882  0.99883176  0.67900404    -0.18300
H443        H  0.54898412  0.97482433  0.90183484     0.14600
H444        H  0.46200379  0.97681461  0.90140022     0.14600
H445        H  0.54903380  0.96491785  0.60328154     0.14600
H446        H  0.46225394  0.96732557  0.60269386     0.14600
H447        H  0.70277183  0.03450734  0.79480673     0.12900
H448        H  0.70318094  0.02929969  0.71449513     0.12900
H449        H  0.37594164  0.04191136  0.78844675     0.12900
H450        H  0.37730922  0.03904522  0.70809603     0.12900
H451        H  0.53181457  0.02478538  0.78558941     0.26200
H452        H  0.53286186  0.01959830  0.71837775     0.26200
C453        C  0.02368708  0.26244545  0.50524329     0.03100
C454        C  0.05062371  0.29557029  0.96454230    -0.13000
C455        C  0.05263773  0.34347950  0.96137103     0.00600
C456        C  0.02998950  0.35855488  0.49721057    -0.11500
C457        C  0.03071193  0.33926152  0.53576800     0.03100
C458        C  0.02819923  0.29168523  0.53971739    -0.11000
H459        H  0.05360193  0.27671795  0.93739654     0.08700
H460        H  0.03294875  0.39599665  0.49462228     0.06200
H461        H  0.03035258  0.27775062  0.56963082     0.06100
C462        C  0.04847562  0.80921605  0.49179047     0.03100
C463        C  0.05633295  0.79197485  0.52972875    -0.13000
C464        C  0.05646633  0.74509167  0.53250378     0.00600
C465        C  0.05110691  0.71730426  0.49664020    -0.11500
C466        C  0.03474156  0.73048106  0.95830634     0.03100
C467        C  0.03167282  0.77538306  0.95634972    -0.11000
H468        H  0.06099600  0.81425498  0.55705149     0.08700
H469        H  0.05155679  0.68141981  0.49809595     0.06200
H470        H  0.03401143  0.79324570  0.92721892     0.06100
N471        N  0.06145930  0.55075213  0.68573669    -0.36600
N472        N  0.05826751  0.61592644  0.74710362    -0.57200
N473        N  0.05934208  0.54501520  0.80970504    -0.36600
N474        N  0.05721062  0.47729162  0.74805172    -0.57200
C475        C  0.05235745  0.58285428  0.66269920     0.27000
C476        C  0.04822411  0.50815733  0.66303244     0.27000
C477        C  0.04544978  0.57410796  0.83168107     0.27000
C478        C  0.04830879  0.50291284  0.83233314     0.28600
C479        C  0.06868141  0.64831231  0.71537529     0.35600
C480        C  0.06488713  0.64387883  0.78110837     0.35600
C481        C  0.06354667  0.45550653  0.71433446     0.35600
C482        C  0.06494058  0.45379802  0.78016525     0.35600
C483        C  0.03337572  0.56044631  0.62493789    -0.21900
C484        C  0.03078304  0.51339266  0.62510541    -0.21900
C485        C  0.02561901  0.55035017  0.86871761    -0.21900
C486        C  0.02765426  0.50559956  0.86917050    -0.21900
C487        C  0.08177799  0.69709331  0.72926947    -0.23000
C488        C  0.07917203  0.69424806  0.77100006    -0.22900
C489        C  0.07498181  0.41763259  0.72501595    -0.23000
C490        C  0.07607768  0.41672000  0.76681814    -0.22900
C491        C  0.06327575  0.63301252  0.67412000    -0.18300
C492        C  0.05521623  0.46648427  0.67418145    -0.18300
C493        C  0.05774812  0.46281822  0.82112515    -0.18300
C494        C  0.05381576  0.62343422  0.82081063    -0.18300
H495        H  0.02284456  0.57649812  0.59973962     0.14600
H496        H  0.01815409  0.48641319  0.59982895     0.14600
H497        H  0.01161034  0.56412932  0.89316784     0.14600
H498        H  0.01515028  0.47806217  0.89376979     0.14600
H499        H  0.09141882  0.73089650  0.71126932     0.12900
H500        H  0.08627273  0.72547481  0.79154240     0.12900
H501        H  0.08115242  0.39276398  0.70478188     0.12900
H502        H  0.08303262  0.39096080  0.78522731     0.12900
H503        H  0.08137421  0.55976268  0.71328985     0.26200
H504        H  0.08051298  0.55646266  0.78300501     0.26200
O505        O  0.94684782  0.97058301  0.97358252    -0.88300
C506        C  0.97973296  0.07316562  0.56296793     0.87700
Mg507      Mg  0.96710888  0.91082843  0.97588418     1.58100
O508        O  0.05949228  0.12150656  0.96908070    -0.88100
O509        O  0.95107883  0.03012925  0.93350220    -0.75400
C510        C  0.22517104  0.04515158  0.51353577     0.92700
O511        O  0.96162810  0.95224859  0.56865938    -0.75200
O512        O  0.18586420  0.00267917  0.52410082    -0.82700
Mg513      Mg  0.91111283  0.97060448  0.52761901     1.58000
C514        C  0.22349136  0.21504815  0.98498377     0.92700
O515        O  0.85600398  0.00143260  0.00174998    -0.81000
H516        H  0.06372120  0.13531167  0.90936427    -0.06300
C517        C  0.12804103  0.09100467  0.56450807     0.87600
O518        O  0.03565466  0.95525385  0.93268204    -0.75500
O519        O  0.96544943  0.05269304  0.52922833    -0.88300
O520        O  0.18060549  0.21392480  0.98664878    -0.81100
C521        C  0.02591265  0.21471639  0.50971653     0.92800
C522        C  0.85593309  0.04274678  0.99321255     0.92600
Mg523      Mg  0.16144100  0.09074274  0.97177008     1.58000
O524        O  0.22187651  0.08428845  0.50311588    -0.81000
O525        O  0.11436737  0.11437658  0.93033222    -0.75200
O526        O  0.98615425  0.17173343  0.50022518    -0.81100
O527        O  0.85328107  0.88487451  0.52214042    -0.82800
O528        O  0.07025883  0.88916731  0.99794703    -0.81100
C529        C  0.07836512  0.12441457  0.93528348     0.87100
O530        O  0.10093446  0.01026171  0.97005281    -0.88300
O531        O  0.12226485  0.10504873  0.53071193    -0.88400
O532        O  0.12022248  0.04581549  0.57000399    -0.75400
Mg533      Mg  0.97961253  0.10261354  0.97356816     1.58000
O534        O  0.06837300  0.21829293  0.52079933    -0.82800
H535        H  0.92578188  0.95639995  0.91504350    -0.06500
O536        O  0.01829331  0.94891999  0.52962659    -0.88100
H537        H  0.01422039  0.93382116  0.58904009    -0.06300
H538        H  0.10734014  0.00289871  0.91028835    -0.06500
C539        C  0.99860321  0.94395587  0.56330972     0.87000
C540        C  0.94017803  0.98406341  0.93983766     0.87600
C541        C  0.08282040  0.98996905  0.93673439     0.87700
H542        H  0.13882677  0.11730625  0.59008436    -0.06500
O543        O  0.02524905  0.11051130  0.56880866    -0.75500
Mg544      Mg  0.10015016  0.97592633  0.52886635     1.58000
H545        H  0.95339305  0.05807660  0.58825673    -0.06500
C546        C  0.85676080  0.84595321  0.51142408     0.92700
O547        O  0.98651521  0.84696507  0.98150911    -0.82700
C548        C  0.02828484  0.84761222  0.98977695     0.92700
O549        O  0.89660120  0.08386524  0.98250759    -0.82700
Mg550      Mg  0.09503012  0.15974538  0.52814186     1.58200
O551        O  0.89916006  0.84972783  0.50061192    -0.81100
O552        O  0.22587561  0.17437303  0.97956949    -0.82800
C553        C  0.05000955  0.65507411  0.85359648    -0.06100
C554        C  0.09029718  0.67763133  0.88226154    -0.17300
C555        C  0.08724489  0.70444498  0.91579766     0.11100
C556        C  0.04262589  0.70828258  0.92106067    -0.06100
C557        C  0.00327673  0.68766104  0.89148352    -0.17300
C558        C  0.00616444  0.66047490  0.85800896     0.11100
S559        S  0.14131629  0.73262539  0.95084153    -0.32300
S560        S  0.95204919  0.63219396  0.82300122    -0.32300
H561        H  0.95647731  0.58948706  0.81139815     0.29100
H562        H  0.13561138  0.77457048  0.96263882     0.29100
H563        H  0.12403738  0.67365887  0.87867352     0.19700
H564        H  0.96908862  0.69076078  0.89548924     0.19700
C565        C  0.06161574  0.72358445  0.57211324    -0.06100
C566        C  0.10128386  0.71189050  0.57636066    -0.17300
C567        C  0.10471022  0.68581395  0.61050410     0.11100
C568        C  0.06690376  0.66940473  0.64124003    -0.06100
C569        C  0.02865621  0.68322779  0.63809160    -0.17300
C570        C  0.02547669  0.70981994  0.60401467     0.11100
S571        S  0.15753330  0.67329758  0.61254428    -0.32300
S572        S  0.97231446  0.72174402  0.60199061    -0.32300
H573        H  0.96240576  0.71168064  0.56013750     0.29100
H574        H  0.16058712  0.67263357  0.65519836     0.29100
H575        H  0.12951516  0.72250634  0.55241930     0.19700
H576        H  0.99941304  0.67084703  0.66138607     0.19700
C577        C  0.03642804  0.37011609  0.57213419    -0.06100
C578        C  0.08513609  0.41308217  0.58068699    -0.17300
C579        C  0.09315587  0.44367541  0.61507980     0.11100
C580        C  0.05141287  0.43106145  0.64131952    -0.06100
C581        C  0.00296354  0.38739425  0.63324977    -0.17300
C582        C  0.99485417  0.35704194  0.59866033     0.11100
S583        S  0.15683775  0.49912450  0.62291053    -0.32300
S584        S  0.93040903  0.30346146  0.58939880    -0.32300
H585        H  0.93326332  0.30393003  0.54675545     0.29100
H586        H  0.15344040  0.50333256  0.66516520     0.29100
H587        H  0.11706411  0.42282498  0.56034484     0.19700
H588        H  0.97077575  0.37834935  0.65309496     0.19700
C589        C  0.05865043  0.36994710  0.92171844    -0.06100
C590        C  0.01776728  0.34846184  0.89330451    -0.17300
C591        C  0.01675067  0.37707490  0.85979966     0.11100
C592        C  0.05803569  0.42826693  0.85391287    -0.06100
C593        C  0.09991099  0.44873265  0.88134787    -0.17300
C594        C  0.10088039  0.42020532  0.91471634     0.11100
S595        S  0.96055762  0.34677960  0.82695458    -0.32300
S596        S  0.15680866  0.45043467  0.94783355    -0.32300
H597        H  0.15375438  0.40418333  0.96040195     0.29100
H598        H  0.96177928  0.39221073  0.81473219     0.29100
H599        H  0.98495003  0.31023144  0.89854443     0.19700
H600        H  0.13188650  0.48770923  0.87701866     0.19700
C601        C  0.41226771  0.01786450  0.85811224    -0.06100
C602        C  0.36064166  0.97957674  0.86530733    -0.17300
C603        C  0.33377691  0.98196163  0.89950998     0.11100
C604        C  0.35845891  0.02429291  0.92700990    -0.06100
C605        C  0.40934224  0.06355791  0.91858041    -0.17300
C606        C  0.43620387  0.06093603  0.88476084     0.11100
S607        S  0.26967022  0.92795638  0.90768692    -0.32300
S608        S  0.50175495  0.11312130  0.87809580    -0.32300
H609        H  0.50214731  0.10917153  0.83552054     0.29100
H610        H  0.27409958  0.92778039  0.95025354     0.29100
H611        H  0.34201269  0.94622560  0.84524650     0.19700
H612        H  0.42881559  0.09640028  0.93908047     0.19700
C613        C  0.36861609  0.03166473  0.57789898    -0.06100
C614        C  0.34332996  0.98371951  0.59763516    -0.17300
C615        C  0.36679524  0.97333324  0.63030154     0.11100
C616        C  0.41617132  0.01212333  0.64394726    -0.06100
C617        C  0.44078399  0.06036202  0.62486783    -0.17300
C618        C  0.41740623  0.07072214  0.59233943     0.11100
S619        S  0.33218889  0.90994506  0.65272402    -0.32300
S620        S  0.45140270  0.13473720  0.57100206    -0.32300
H621        H  0.40690078  0.13667321  0.56042968     0.29100
H622        H  0.37551463  0.90822530  0.66700863     0.29100
H623        H  0.30579375  0.95369791  0.58669734     0.19700
H624        H  0.47848686  0.09027141  0.63562888     0.19700
C625        C  0.63981398  0.01705434  0.86004911    -0.06100
C626        C  0.64858040  0.97732698  0.87199475    -0.17300
C627        C  0.67749782  0.98240101  0.90698662     0.11100
C628        C  0.69876161  0.02856192  0.93017370    -0.06100
C629        C  0.69055721  0.06852922  0.91783246    -0.17300
C630        C  0.66169934  0.06345990  0.88287411     0.11100
S631        S  0.68396818  0.92787439  0.92127835    -0.32300
S632        S  0.65323150  0.11705399  0.86945881    -0.32300
H633        H  0.64708418  0.10715164  0.82740019     0.29100
H634        H  0.68577820  0.93623305  0.96349432     0.29100
H635        H  0.63113244  0.94146191  0.85477839     0.19700
H636        H  0.70720273  0.10411943  0.93538153     0.19700
C637        C  0.64048736  0.00368269  0.64598262    -0.06100
C638        C  0.66409843  0.04954103  0.62350551    -0.17300
C639        C  0.69547958  0.05578324  0.59010355     0.11100
C640        C  0.70273489  0.01470815  0.57749608    -0.06100
C641        C  0.68152744  0.96976893  0.60129453    -0.17300
C642        C  0.65054068  0.96377862  0.63529755     0.11100
S643        S  0.72503181  0.11727106  0.56457025    -0.32300
S644        S  0.62402617  0.90383762  0.66281874    -0.32300
H645        H  0.58100070  0.90420519  0.67899431     0.29100
H646        H  0.76866066  0.11571871  0.55109321     0.29100
H647        H  0.65755186  0.08073450  0.63189735     0.19700
H648        H  0.68697338  0.93810831  0.59217065     0.19700
C649        C  0.64286803  0.67152292  0.85925841    -0.06100
C650        C  0.69326139  0.67983973  0.86297352    -0.17300
C651        C  0.72388342  0.70390330  0.89767894     0.11100
C652        C  0.70426663  0.72105780  0.92929022    -0.06100
C653        C  0.65477287  0.71471688  0.92463932    -0.17300
C654        C  0.62424152  0.69071176  0.89008475     0.11100
S655        S  0.78603580  0.70832927  0.90093008    -0.32300
S656        S  0.56094406  0.68387987  0.88787545    -0.32300
H657        H  0.55684153  0.68257750  0.84523488     0.29100
H658        H  0.78481061  0.69986928  0.94302624     0.29100
H659        H  0.70770382  0.66483137  0.83972081     0.19700
H660        H  0.63931158  0.72768442  0.94865810     0.19700
C661        C  0.70093535  0.70863516  0.57823071    -0.06100
C662        C  0.71964263  0.68867480  0.60793762    -0.17300
C663        C  0.69014362  0.66344896  0.64195325     0.11100
C664        C  0.64146609  0.65933418  0.64678843    -0.06100
C665        C  0.62383465  0.68135021  0.61796401    -0.17300
C666        C  0.65318657  0.70622566  0.58382411     0.11100
S667        S  0.71592478  0.63589978  0.67707965    -0.32300
S668        S  0.62762936  0.73380137  0.54853770    -0.32300
H669        H  0.67576638  0.77412575  0.53540219     0.29100
H670        H  0.66830256  0.59341971  0.68855188     0.29100
H671        H  0.75654326  0.69090371  0.60369981     0.19700
H672        H  0.58647861  0.67822029  0.62180681     0.19700
C673        C  0.36112171  0.37716338  0.92505852    -0.06100
C674        C  0.38210123  0.35886876  0.89595593    -0.17300
C675        C  0.40855151  0.38882226  0.86247566     0.11100
C676        C  0.41308363  0.43761646  0.85748309    -0.06100
C677        C  0.39078808  0.45530446  0.88589593    -0.17300
C678        C  0.36445799  0.42540274  0.91947899     0.11100
S679        S  0.43703555  0.36353639  0.82798473    -0.32300
S680        S  0.33556611  0.45056087  0.95369016    -0.32300
H681        H  0.29380505  0.40225081  0.96496164     0.29100
H682        H  0.48180261  0.41113641  0.82005561     0.29100
H683        H  0.37942485  0.32175545  0.90015910     0.19700
H684        H  0.39442921  0.49288185  0.88199825     0.19700
C685        C  0.34518349  0.37815761  0.57500357    -0.06100
C686        C  0.36057025  0.35514115  0.60488256    -0.17300
C687        C  0.38960196  0.38315347  0.63920925     0.11100
C688        C  0.40265051  0.43525744  0.64467111    -0.06100
C689        C  0.38500342  0.45734264  0.61581101    -0.17300
C690        C  0.35639296  0.42953395  0.58144059     0.11100
S691        S  0.41113588  0.35099407  0.67356696    -0.32300
S692        S  0.33570451  0.46209697  0.54676601    -0.32300
H693        H  0.29188651  0.41712429  0.53197991     0.29100
H694        H  0.45817731  0.39508934  0.68461770     0.29100
H695        H  0.35264256  0.31600003  0.60020660     0.19700
H696        H  0.39453052  0.49711380  0.61974326     0.19700
loop_ 
_geom_bond_atom_site_label_1 
_geom_bond_atom_site_label_2 
_geom_bond_distance 
_geom_bond_site_symmetry_2 
_ccdc_geom_bond_type 
C1            C6   1.414   1_556  A
C1          C350   1.393       .  A
C1          C514   1.469       .  S
C2            C3   1.398       .  A
C2          C349   1.394       .  A
C2            H7   1.084       .  S
C3            C4   1.404       .  A
C3          C325   1.472       .  S
C4          C353   1.403       .  A
C4            H8   1.084       .  S
C5            C6   1.411       .  A
C5          C352   1.403       .  A
C5          C337   1.492       .  S
C6            H9   1.084       .  S
C10          C15   1.396       .  A
C10         C359   1.414   1_554  A
C10         C198   1.469       .  S
C11          C12   1.411       .  A
C11         C358   1.415       .  A
C11          H16   1.084       .  S
C12          C13   1.403       .  A
C12         C304   1.492       .  S
C13         C362   1.402       .  A
C13          H17   1.084       .  S
C14          C15   1.399       .  A
C14         C361   1.401       .  A
C14         C313   1.468       .  S
C15          H18   1.084       .  S
N19          C24   1.358       .  A
N19          C23   1.350       .  A
N19          H51   1.038       .  S
N20          C27   1.348       .  A
N20          C28   1.354       .  A
N21          C26   1.349       .  A
N21          C25   1.356       .  A
N21          H52   1.038       .  S
N22          C29   1.353       .  A
N22          C30   1.347       .  A
C23          C31   1.389       .  A
C23          C39   1.417       .  A
C24          C40   1.417       .  A
C24          C32   1.385       .  A
C25          C33   1.385       .  A
C25          C42   1.414       .  A
C26          C41   1.415       .  A
C26          C34   1.389       .  A
C27          C39   1.414       .  A
C27          C35   1.389       .  A
C28          C42   1.412       .  A
C28          C36   1.383       .  A
C29          C37   1.384       .  A
C29          C40   1.412       .  A
C30          C38   1.388       .  A
C30          C41   1.412       .  A
C31          C32   1.376       .  A
C31          H43   1.082       .  S
C32          H44   1.082       .  S
C33          C34   1.375       .  A
C33          H45   1.082       .  S
C34          H46   1.082       .  S
C35          C36   1.375       .  A
C35          H47   1.082       .  S
C36          H48   1.082       .  S
C37          C38   1.375       .  A
C37          H49   1.082       .  S
C38          H50   1.082       .  S
C39         C316   1.475       .  S
C40         C340   1.498       .  S
C41         C328   1.474       .  S
C42         C301   1.498       .  S
C53          C54   1.417   1_556  A
C53         C406   1.394       .  A
C53         C522   1.473       .  S
C54          C55   1.413       .  A
C54          H59   1.083       .  S
C55          C56   1.404       .  A
C55         C292   1.497       .  S
C56         C405   1.403   1_554  A
C56          H60   1.084       .  S
C57          C58   1.397       .  A
C57         C404   1.400       .  A
C57         C280   1.467       .  S
C58         C401   1.395       .  A
C58          H61   1.084       .  S
C62          C63   1.394       .  A
C62         C415   1.417   1_554  A
C62         C162   1.471       .  S
C63          C64   1.397       .  A
C63          H68   1.084       .  S
C64          C65   1.402       .  A
C64         C265   1.470       .  S
C65         C414   1.404   1_554  A
C65          H69   1.084       .  S
C66          C67   1.413       .  A
C66         C413   1.403       .  A
C66         C256   1.499       .  S
C67         C410   1.417       .  A
C67          H70   1.083       .  S
N71          C76   1.359       .  A
N71          C75   1.351       .  A
N71         H103   1.039       .  S
N72          C79   1.348       .  A
N72          C80   1.356       .  A
N73          C78   1.351       .  A
N73          C77   1.360       .  A
N73         H104   1.039       .  S
N74          C81   1.357       .  A
N74          C82   1.349       .  A
C75          C83   1.390       .  A
C75          C91   1.419       .  A
C76          C92   1.418       .  A
C76          C84   1.385       .  A
C77          C85   1.384       .  A
C77          C94   1.418       .  A
C78          C93   1.420       .  A
C78          C86   1.391       .  A
C79          C91   1.415       .  A
C79          C87   1.389       .  A
C80          C94   1.414       .  A
C80          C88   1.383       .  A
C81          C89   1.383       .  A
C81          C92   1.416       .  A
C82          C90   1.389       .  A
C82          C93   1.418       .  A
C83          C84   1.373       .  A
C83          H95   1.082       .  S
C84          H96   1.082       .  S
C85          C86   1.373       .  A
C85          H97   1.082       .  S
C86          H98   1.082       .  S
C87          C88   1.376       .  A
C87          H99   1.082       .  S
C88         H100   1.082       .  S
C89          C90   1.377       .  A
C89         H101   1.082       .  S
C90         H102   1.082       .  S
C91         C277   1.479       .  S
C92         C253   1.509       .  S
C93         C268   1.480       .  S
C94         C289   1.507       .  S
C105        C110   1.395       .  A
C105        C454   1.416   1_554  A
C105        C173   1.471       .  S
C106        C107   1.413       .  A
C106        C453   1.418       .  A
C106        H111   1.083       .  S
C107        C456   1.402       .  A
C107        C241   1.495       .  S
C108        C109   1.400   1_556  A
C108        C455   1.401       .  A
C108        H112   1.084       .  S
C109        C110   1.398       .  A
C109        C229   1.467       .  S
C110        H113   1.084       .  S
C114        C115   1.415   1_556  A
C114        C467   1.395       .  A
C114        C548   1.469       .  S
C115        C116   1.412       .  A
C115        H120   1.083       .  S
C116        C117   1.403   1_554  A
C116        C217   1.497       .  S
C117        C466   1.402       .  A
C117        H121   1.084       .  S
C118        C119   1.399       .  A
C118        C465   1.403       .  A
C118        C208   1.473       .  S
C119        C462   1.397       .  A
C119        H122   1.084       .  S
N123        C128   1.350       .  A
N123        C127   1.357       .  A
N123        H155   1.038       .  S
N124        C131   1.355       .  A
N124        C132   1.350       .  A
N125        C130   1.358       .  A
N125        C129   1.351       .  A
N125        H156   1.037       .  S
N126        C133   1.349       .  A
N126        C134   1.354       .  A
C127        C135   1.386   1_455  A
C127        C143   1.417       .  A
C128        C144   1.416       .  A
C128        C136   1.389   1_455  A
C129        C137   1.388   1_455  A
C129        C146   1.418       .  A
C130        C145   1.419       .  A
C130        C138   1.386   1_455  A
C131        C143   1.414       .  A
C131        C139   1.384       .  A
C132        C146   1.416       .  A
C132        C140   1.388       .  A
C133        C141   1.388       .  A
C133        C144   1.414       .  A
C134        C142   1.384       .  A
C134        C145   1.413       .  A
C135        C136   1.375       .  A
C135        H147   1.082       .  S
C136        H148   1.082       .  S
C137        C138   1.376       .  A
C137        H149   1.082       .  S
C138        H150   1.082       .  S
C139        C140   1.376       .  A
C139        H151   1.082       .  S
C140        H152   1.082       .  S
C141        C142   1.376       .  A
C141        H153   1.082       .  S
C142        H154   1.082       .  S
C143        C220   1.503       .  S
C144        C232   1.476       .  S
C145        C244   1.501       .  S
C146        C205   1.480       .  S
O157       Mg159   2.162       .  S
O157       Mg513   2.183       .  S
O157        C192   1.231       .  S
C158        H197   1.081       .  S
C158        O171   1.233       .  S
C158        O195   1.269   1_655  A
Mg159       O536   2.189   1_655  S
Mg159       O199   2.278   1_655  S
Mg159       O170   2.291   1_655  S
Mg159       O551   2.282       .  S
O160       Mg185   2.174   1_455  S
O160       Mg550   2.186       .  S
O160        C181   1.232       .  S
O161        C192   1.266   1_545  A
O161       Mg185   2.293       .  S
C162        O164   1.271   1_545  A
C162        O176   1.272       .  A
O163        C191   1.268       .  A
O163       Mg165   2.300       .  S
O164       Mg196   2.275       .  S
Mg165       O171   2.167   1_565  S
Mg165       O505   2.173   1_554  S
Mg165       O179   2.278       .  S
Mg165       O515   2.293   1_565  S
C166        C349   1.471       .  S
C166        O204   1.273       .  A
C166        O172   1.272       .  A
O167        C174   1.272   1_565  A
O167       Mg513   2.289       .  S
H168        C181   1.081       .  S
C169        H194   1.081       .  S
C169        O183   1.232       .  S
C169        O184   1.268       .  A
O170        C193   1.266       .  A
O171       Mg533   2.179   1_554  S
O172       Mg550   2.284       .  S
C173        O186   1.270       .  A
C173        O178   1.271       .  A
C174        C401   1.474       .  S
C174        O201   1.274       .  A
Mg175       O182   2.158       .  S
Mg175       O531   2.189       .  S
Mg175       O177   2.300       .  S
Mg175       O204   2.277       .  S
Mg175       O524   2.304       .  S
O176       Mg523   2.291   1_554  S
O177        C181   1.267       .  A
O178       Mg533   2.290   1_454  S
O179        C198   1.272       .  A
O180        C200   1.272       .  A
O180       Mg544   2.287       .  S
O182       Mg544   2.186   1_545  S
O182        C193   1.232   1_545  S
O183       Mg202   2.171       .  S
O183       Mg523   2.163   1_554  S
O184       Mg196   2.304   1_545  S
Mg185       O519   2.181       .  S
Mg185       O201   2.283       .  S
Mg185       O526   2.291       .  S
O186       Mg202   2.275       .  S
H187        C192   1.081       .  S
O188       Mg196   2.161       .  S
O188       Mg507   2.172   1_454  S
O188        C191   1.232   1_455  S
H189        C191   1.081   1_455  S
H190        C193   1.081   1_545  S
O195       Mg202   2.303       .  S
Mg196       O530   2.179   1_564  S
Mg196       O528   2.285   1_554  S
C198        O203   1.271       .  A
O199        C200   1.273       .  A
C200        C462   1.473       .  S
Mg202       O508   2.165   1_554  S
Mg202       O520   2.284   1_554  S
O203       Mg507   2.284   1_554  S
C205        C206   1.401       .  A
C205        C210   1.412   1_455  A
C206        C207   1.395       .  A
C206        H215   1.084       .  S
C207        C208   1.411       .  A
C207        S211   1.805       .  S
C208        C209   1.403   1_455  A
C209        C210   1.399       .  A
C209        H216   1.084       .  S
C210        S212   1.805       .  S
S211        H214   1.407       .  S
S212        H213   1.404       .  S
C217        C218   1.406       .  A
C217        C222   1.417   1_455  A
C218        C219   1.402       .  A
C218        H227   1.084       .  S
C219        C220   1.414       .  A
C219        S223   1.805       .  S
C220        C221   1.407   1_455  A
C221        C222   1.410       .  A
C221        H228   1.084       .  S
C222        S224   1.803       .  S
S223        H226   1.406       .  S
S224        H225   1.406       .  S
C229        C230   1.401       .  A
C229        C234   1.411   1_455  A
C230        C231   1.395       .  A
C230        H239   1.084       .  S
C231        C232   1.412       .  A
C231        S235   1.805       .  S
C232        C233   1.401   1_455  A
C233        C234   1.396       .  A
C233        H240   1.084       .  S
C234        S236   1.804       .  S
S235        H238   1.404       .  S
S236        H237   1.406       .  S
C241        C242   1.406   1_455  A
C241        C246   1.416       .  A
C242        C243   1.410       .  A
C242        H251   1.084       .  S
C243        C244   1.417   1_655  A
C243        S247   1.805       .  S
C244        C245   1.403       .  A
C245        C246   1.403       .  A
C245        H252   1.084       .  S
C246        S248   1.804       .  S
S247        H250   1.404       .  S
S248        H249   1.406       .  S
C253        C254   1.407       .  A
C253        C258   1.417       .  A
C254        C255   1.410       .  A
C254        H263   1.084       .  S
C255        C256   1.417       .  A
C255        S259   1.803   1_545  S
C256        C257   1.406       .  A
C257        C258   1.406       .  A
C257        H264   1.084       .  S
C258        S260   1.803       .  S
S259        H262   1.406       .  S
S260        H261   1.406       .  S
C265        C266   1.402       .  A
C265        C270   1.411       .  A
C266        C267   1.397       .  A
C266        H275   1.084   1_545  S
C267        C268   1.412       .  A
C267        S271   1.804   1_545  S
C268        C269   1.402       .  A
C269        C270   1.395       .  A
C269        H276   1.084       .  S
C270        S272   1.804       .  S
S271        H274   1.405       .  S
S272        H273   1.406       .  S
C277        C278   1.402       .  A
C277        C282   1.411       .  A
C278        C279   1.395       .  A
C278        H287   1.084   1_545  S
C279        C280   1.411       .  A
C279        S283   1.804   1_545  S
C280        C281   1.402       .  A
C281        C282   1.395       .  A
C281        H288   1.084       .  S
C282        S284   1.805       .  S
S283        H286   1.406       .  S
S284        H285   1.406       .  S
C289        C290   1.405       .  A
C289        C294   1.418       .  A
C290        C291   1.405       .  A
C290        H299   1.084       .  S
C291        C292   1.415       .  A
C291        S295   1.804       .  S
C292        C293   1.406       .  A
C293        C294   1.411       .  A
C293        H300   1.084   1_545  S
C294        S296   1.804   1_545  S
S295        H298   1.406       .  S
S296        H297   1.405       .  S
C301        C302   1.406       .  A
C301        C306   1.413       .  A
C302        C303   1.408       .  A
C302        H311   1.084       .  S
C303        C304   1.416       .  A
C303        S307   1.803       .  S
C304        C305   1.405       .  A
C305        C306   1.402       .  A
C305        H312   1.084       .  S
C306        S308   1.804       .  S
S307        H310   1.406       .  S
S308        H309   1.405       .  S
C313        C314   1.403       .  A
C313        C318   1.410       .  A
C314        C315   1.398       .  A
C314        H323   1.084       .  S
C315        C316   1.411       .  A
C315        S319   1.805       .  S
C316        C317   1.400       .  A
C317        C318   1.392       .  A
C317        H324   1.084       .  S
C318        S320   1.805       .  S
S319        H322   1.405       .  S
S320        H321   1.406       .  S
C325        C326   1.405       .  A
C325        C330   1.412       .  A
C326        C327   1.397       .  A
C326        H335   1.084       .  S
C327        C328   1.410       .  A
C327        S331   1.806       .  S
C328        C329   1.399       .  A
C329        C330   1.392       .  A
C329        H336   1.084       .  S
C330        S332   1.803       .  S
S331        H334   1.404       .  S
S332        H333   1.406       .  S
C337        C338   1.405       .  A
C337        C342   1.415       .  A
C338        C339   1.407       .  A
C338        H347   1.084       .  S
C339        C340   1.416       .  A
C339        S343   1.804       .  S
C340        C341   1.403       .  A
C341        C342   1.403       .  A
C341        H348   1.084       .  S
C342        S344   1.804       .  S
S343        H346   1.403       .  S
S344        H345   1.406       .  S
C349        C354   1.415       .  A
C350        C351   1.397       .  A
C350        H355   1.085       .  S
C351        C352   1.403   1_556  A
C351        C673   1.469       .  S
C352        H356   1.084       .  S
C353        C354   1.410       .  A
C353        C685   1.494       .  S
C354        H357   1.084       .  S
C358        C363   1.393       .  A
C358        C546   1.468       .  S
C359        C360   1.409       .  A
C359        H364   1.084       .  S
C360        C361   1.400   1_556  A
C360        C652   1.490       .  S
C361        H365   1.085       .  S
C362        C363   1.395       .  A
C362        C661   1.467       .  S
C363        H366   1.085       .  S
N367        C372   1.357       .  A
N367        C371   1.351       .  A
N367        H399   1.039       .  S
N368        C375   1.347       .  A
N368        C376   1.353       .  A
N369        C374   1.350       .  A
N369        C373   1.357       .  A
N369        H400   1.040       .  S
N370        C377   1.354       .  A
N370        C378   1.348       .  A
C371        C379   1.389       .  A
C371        C387   1.416       .  A
C372        C388   1.416       .  A
C372        C380   1.385       .  A
C373        C381   1.385       .  A
C373        C390   1.415       .  A
C374        C389   1.415       .  A
C374        C382   1.390       .  A
C375        C387   1.412       .  A
C375        C383   1.388       .  A
C376        C390   1.411       .  A
C376        C384   1.384       .  A
C377        C385   1.384       .  A
C377        C388   1.413       .  A
C378        C386   1.388       .  A
C378        C389   1.413       .  A
C379        C380   1.373       .  A
C379        H391   1.082       .  S
C380        H392   1.082       .  S
C381        C382   1.372       .  A
C381        H393   1.082       .  S
C382        H394   1.082       .  S
C383        C384   1.376       .  A
C383        H395   1.082       .  S
C384        H396   1.082       .  S
C385        C386   1.377       .  A
C385        H397   1.082       .  S
C386        H398   1.082       .  S
C387        C664   1.476       .  S
C388        C688   1.501       .  S
C389        C676   1.476       .  S
C390        C649   1.499       .  S
C401        C402   1.418       .  A
C402        C403   1.413       .  A
C402        H407   1.083       .  S
C403        C404   1.403       .  A
C403        C640   1.496       .  S
C404        H408   1.084       .  S
C405        C406   1.398       .  A
C405        C628   1.472       .  S
C406        H409   1.084       .  S
C410        C411   1.398       .  A
C410        C510   1.478       .  S
C411        C412   1.400       .  A
C411        H416   1.084       .  S
C412        C413   1.405       .  A
C412        C613   1.476       .  S
C413        H417   1.084       .  S
C414        C415   1.414       .  A
C414        C604   1.500       .  S
C415        H418   1.083       .  S
N419        C424   1.357   1_545  A
N419        C423   1.350   1_545  A
N419        H451   1.038       .  S
N420        C427   1.350   1_565  A
N420        C428   1.355   1_565  A
N421        C426   1.351   1_545  A
N421        C425   1.358   1_545  A
N421        H452   1.037       .  S
N422        C429   1.355       .  A
N422        C430   1.350       .  A
C423        C431   1.389       .  A
C423        C439   1.416   1_565  A
C424        C440   1.417   1_565  A
C424        C432   1.386       .  A
C425        C433   1.386       .  A
C425        C442   1.419       .  A
C426        C441   1.418   1_565  A
C426        C434   1.389       .  A
C427        C439   1.415       .  A
C427        C435   1.388       .  A
C428        C442   1.415   1_545  A
C428        C436   1.384       .  A
C429        C437   1.384       .  A
C429        C440   1.415       .  A
C430        C438   1.388       .  A
C430        C441   1.417       .  A
C431        C432   1.375       .  A
C431        H443   1.082       .  S
C432        H444   1.082       .  S
C433        C434   1.376       .  A
C433        H445   1.082       .  S
C434        H446   1.082       .  S
C435        C436   1.376       .  A
C435        H447   1.082       .  S
C436        H448   1.082       .  S
C437        C438   1.376       .  A
C437        H449   1.082       .  S
C438        H450   1.082       .  S
C439        C625   1.479       .  S
C440        C601   1.503       .  S
C441        C616   1.481       .  S
C442        C637   1.501   1_565  S
C453        C458   1.395       .  A
C453        C521   1.474       .  S
C454        C455   1.411       .  A
C454        H459   1.083       .  S
C455        C589   1.493       .  S
C456        C457   1.400       .  A
C456        H460   1.084       .  S
C457        C458   1.397       .  A
C457        C577   1.465       .  S
C458        H461   1.084       .  S
C462        C463   1.416       .  A
C463        C464   1.411       .  A
C463        H468   1.084       .  S
C464        C465   1.403       .  A
C464        C565   1.497       .  S
C465        H469   1.084       .  S
C466        C467   1.397       .  A
C466        C556   1.469       .  S
C467        H470   1.084       .  S
N471        C476   1.351       .  A
N471        C475   1.358       .  A
N471        H503   1.039       .  S
N472        C479   1.354       .  A
N472        C480   1.348       .  A
N473        C478   1.358       .  A
N473        C477   1.351       .  A
N473        H504   1.039       .  S
N474        C481   1.348       .  A
N474        C482   1.354       .  A
C475        C483   1.385       .  A
C475        C491   1.417       .  A
C476        C492   1.417       .  A
C476        C484   1.390       .  A
C477        C485   1.389       .  A
C477        C494   1.417       .  A
C478        C493   1.416       .  A
C478        C486   1.385       .  A
C479        C491   1.413       .  A
C479        C487   1.384       .  A
C480        C494   1.413       .  A
C480        C488   1.388       .  A
C481        C489   1.388       .  A
C481        C492   1.413       .  A
C482        C490   1.384       .  A
C482        C493   1.412       .  A
C483        C484   1.374       .  A
C483        H495   1.082       .  S
C484        H496   1.082       .  S
C485        C486   1.374       .  A
C485        H497   1.082       .  S
C486        H498   1.082       .  S
C487        C488   1.376       .  A
C487        H499   1.082       .  S
C488        H500   1.082       .  S
C489        C490   1.376       .  A
C489        H501   1.082       .  S
C490        H502   1.082       .  S
C491        C568   1.504       .  S
C492        C580   1.476       .  S
C493        C592   1.501       .  S
C494        C553   1.477       .  S
O505       Mg507   2.165       .  S
O505        C540   1.232       .  S
C506        H545   1.081       .  S
C506        O519   1.231       .  S
C506        O543   1.266   1_655  A
Mg507       O547   2.274       .  S
Mg507       O518   2.301   1_655  S
O508       Mg533   2.171   1_455  S
O508        C529   1.234       .  S
O509        C540   1.267   1_545  A
O509       Mg533   2.298       .  S
C510        O512   1.273       .  A
C510        O524   1.275       .  A
O511        C539   1.266       .  A
O511       Mg513   2.290       .  S
O512       Mg544   2.279   1_545  S
Mg513       O519   2.158   1_565  S
Mg513       O527   2.265       .  S
C514        O552   1.270       .  A
C514        O520   1.271       .  A
O515        C522   1.272   1_554  A
H516        C529   1.081       .  S
C517        H542   1.081       .  S
C517        O531   1.232       .  S
C517        O532   1.267       .  A
O518        C541   1.268       .  A
C521        O534   1.273       .  A
C521        O526   1.272   1_455  A
C522        O549   1.272       .  A
Mg523       O530   2.165       .  S
Mg523       O525   2.313       .  S
Mg523       O552   2.275       .  S
O525        C529   1.270       .  A
O527        C546   1.272       .  A
O528        C548   1.271       .  A
O530        C541   1.233   1_545  S
O531       Mg550   2.173       .  S
O532       Mg544   2.298   1_545  S
Mg533       O549   2.279       .  S
O534       Mg550   2.281       .  S
H535        C540   1.081       .  S
O536       Mg544   2.161       .  S
O536        C539   1.232   1_455  S
H537        C539   1.081   1_455  S
H538        C541   1.081   1_545  S
O543       Mg550   2.295       .  S
C546        O551   1.271       .  A
O547        C548   1.271   1_655  A
C553        C554   1.401       .  A
C553        C558   1.412       .  A
C554        C555   1.394       .  A
C554        H563   1.084       .  S
C555        C556   1.411       .  A
C555        S559   1.805       .  S
C556        C557   1.402       .  A
C557        C558   1.397       .  A
C557        H564   1.084   1_455  S
C558        S560   1.805   1_455  S
S559        H562   1.406       .  S
S560        H561   1.405       .  S
C565        C566   1.406       .  A
C565        C570   1.418       .  A
C566        C567   1.403       .  A
C566        H575   1.084       .  S
C567        C568   1.415       .  A
C567        S571   1.804       .  S
C568        C569   1.406       .  A
C569        C570   1.408       .  A
C569        H576   1.084   1_455  S
C570        S572   1.803   1_455  S
S571        H574   1.406       .  S
S572        H573   1.406       .  S
C577        C578   1.401       .  A
C577        C582   1.411   1_455  A
C578        C579   1.395       .  A
C578        H587   1.084       .  S
C579        C580   1.411       .  A
C579        S583   1.805       .  S
C580        C581   1.402       .  A
C581        C582   1.396   1_455  A
C581        H588   1.084   1_455  S
C582        S584   1.805       .  S
S583        H586   1.404       .  S
S584        H585   1.405       .  S
C589        C590   1.405       .  A
C589        C594   1.415       .  A
C590        C591   1.408       .  A
C590        H599   1.084   1_455  S
C591        C592   1.417       .  A
C591        S595   1.804   1_455  S
C592        C593   1.404       .  A
C593        C594   1.403       .  A
C593        H600   1.084       .  S
C594        S596   1.804       .  S
S595        H598   1.404       .  S
S596        H597   1.407       .  S
C601        C602   1.407   1_545  A
C601        C606   1.414       .  A
C602        C603   1.410       .  A
C602        H611   1.084       .  S
C603        C604   1.418   1_565  A
C603        S607   1.803       .  S
C604        C605   1.407       .  A
C605        C606   1.402       .  A
C605        H612   1.084       .  S
C606        S608   1.804       .  S
S607        H610   1.406       .  S
S608        H609   1.406       .  S
C613        C614   1.404   1_545  A
C613        C618   1.412       .  A
C614        C615   1.400       .  A
C614        H623   1.084       .  S
C615        C616   1.412   1_565  A
C615        S619   1.805       .  S
C616        C617   1.401       .  A
C617        C618   1.395       .  A
C617        H624   1.084       .  S
C618        S620   1.804       .  S
S619        H622   1.404       .  S
S620        H621   1.406       .  S
C625        C626   1.401   1_545  A
C625        C630   1.412       .  A
C626        C627   1.398       .  A
C626        H635   1.084       .  S
C627        C628   1.414   1_565  A
C627        S631   1.805       .  S
C628        C629   1.401       .  A
C629        C630   1.396       .  A
C629        H636   1.084       .  S
C630        S632   1.805       .  S
S631        H634   1.406       .  S
S632        H633   1.405       .  S
C637        C638   1.402       .  A
C637        C642   1.418   1_545  A
C638        C639   1.401       .  A
C638        H647   1.084       .  S
C639        C640   1.416       .  A
C639        S643   1.804       .  S
C640        C641   1.407   1_545  A
C641        C642   1.411       .  A
C641        H648   1.084       .  S
C642        S644   1.804       .  S
S643        H646   1.407       .  S
S644        H645   1.404       .  S
C649        C650   1.406       .  A
C649        C654   1.414       .  A
C650        C651   1.407       .  A
C650        H659   1.084       .  S
C651        C652   1.415       .  A
C651        S655   1.803       .  S
C652        C653   1.405       .  A
C653        C654   1.401       .  A
C653        H660   1.084       .  S
C654        S656   1.804       .  S
S655        H658   1.406       .  S
S656        H657   1.406       .  S
C661        C662   1.402       .  A
C661        C666   1.410       .  A
C662        C663   1.395       .  A
C662        H671   1.084       .  S
C663        C664   1.411       .  A
C663        S667   1.805       .  S
C664        C665   1.402       .  A
C665        C666   1.395       .  A
C665        H672   1.084       .  S
C666        S668   1.804       .  S
S667        H670   1.405       .  S
S668        H669   1.406       .  S
C673        C674   1.402       .  A
C673        C678   1.411       .  A
C674        C675   1.394       .  A
C674        H683   1.084       .  S
C675        C676   1.410       .  A
C675        S679   1.804       .  S
C676        C677   1.402       .  A
C677        C678   1.396       .  A
C677        H684   1.084       .  S
C678        S680   1.804       .  S
S679        H682   1.406       .  S
S680        H681   1.406       .  S
C685        C686   1.406       .  A
C685        C690   1.416       .  A
C686        C687   1.407       .  A
C686        H695   1.084       .  S
C687        C688   1.416       .  A
C687        S691   1.803       .  S
C688        C689   1.404       .  A
C689        C690   1.403       .  A
C689        H696   1.084       .  S
C690        S692   1.803       .  S
S691        H694   1.405       .  S
S692        H693   1.406       .  S
