geometry optimzed in LAMMPS
_audit_creation_date              2020-11-30 
_audit_creation_method            'lammps2cif' 
_symmetry_space_group_name_H-M    'P1' 
_symmetry_Int_Tables_number       1 
_symmetry_cell_setting            triclinic 
loop_ 
_symmetry_equiv_pos_as_xyz 
  x,y,z 
_cell_length_a                    47.60330842 
_cell_length_b                    45.99572052172449 
_cell_length_c                    37.45920009009826 
_cell_angle_alpha                 93.22629985597071 
_cell_angle_beta                  91.15051688964408 
_cell_angle_gamma                 118.28514675174182 
loop_ 
_atom_site_label 
_atom_site_type_symbol 
_atom_site_fract_x 
_atom_site_fract_y 
_atom_site_fract_z 
_atom_site_charge 
C1          C  0.43615758  0.35735297  0.39203339     0.81500
N2          N  0.40570435  0.34334141  0.37779809    -0.76800
C3          C  0.39573527  0.31948213  0.35049634     0.84000
N4          N  0.41615870  0.30903064  0.33760627    -0.76700
C5          C  0.44669135  0.32298242  0.35167113     0.84100
N6          N  0.45662666  0.34708251  0.37881533    -0.78500
C7          C  0.36513951  0.43101863  0.24376761     0.81500
N8          N  0.35288432  0.39990589  0.25491688    -0.76800
C9          C  0.33085014  0.39002658  0.28022556     0.84000
N10         N  0.32025090  0.41091737  0.29359778    -0.76700
C11         C  0.33223654  0.44193173  0.28234729     0.84100
N12         N  0.35471668  0.45196437  0.25754094    -0.78500
C13         C  0.17028949  0.09092106  0.38691600     0.81500
N14         N  0.18228304  0.07107224  0.37393596    -0.76800
C15         C  0.20390342  0.08112138  0.34824576     0.84000
N16         N  0.21431296  0.11157111  0.33602325    -0.76700
C17         C  0.20260114  0.13165208  0.34887506     0.84100
N18         N  0.18059825  0.12133781  0.37431798    -0.78500
C19         C  0.30070637  0.27650325  0.32106802     0.03600
C20         C  0.28601323  0.29441899  0.30791956     0.03500
C21         C  0.25270428  0.27888287  0.30238573    -0.17000
C22         C  0.23381348  0.24575309  0.30966901     0.03600
C23         C  0.24840775  0.22775049  0.32271685     0.03500
C24         C  0.28175917  0.24331660  0.32839454    -0.17000
H25         H  0.29302416  0.22955285  0.33866158     0.05600
H26         H  0.24140966  0.29261182  0.29208171     0.05600
C27         C  0.09959321  0.16876757  0.23553566     0.81500
N28         N  0.12982560  0.18194078  0.25018782    -0.76800
C29         C  0.13934772  0.20408296  0.27910933     0.84000
N30         N  0.11875151  0.21367107  0.29328544    -0.76700
C31         C  0.08844154  0.20056113  0.27884122     0.84100
N32         N  0.07889806  0.17814431  0.25004353    -0.78500
C33         C  0.09539378  0.43594439  0.25696084     0.81500
N34         N  0.12641367  0.45245500  0.26935079    -0.76800
C35         C  0.13796949  0.43955544  0.29357503     0.84000
N36         N  0.11843260  0.40951211  0.30556003    -0.76700
C37         C  0.08722452  0.39283503  0.29355384     0.84100
N38         N  0.07583785  0.40592108  0.26908254    -0.78500
C39         C  0.43851394  0.08926478  0.37920881     0.81500
N40         N  0.45859438  0.11871009  0.36634087    -0.76800
C41         C  0.44821441  0.13078564  0.33981112     0.84000
N42         N  0.41750444  0.11360413  0.32627560    -0.76700
C43         C  0.39746284  0.08403054  0.33886738     0.84100
N44         N  0.40795697  0.07215730  0.36534428    -0.78500
C45         C  0.03382321  0.29617829  0.31415611     0.03600
C46         C  0.00184028  0.28020585  0.32399223     0.03500
C47         C  0.48625469  0.24586998  0.32661787    -0.17000
C48         C  0.00198839  0.22719356  0.31938668     0.03600
C49         C  0.03392597  0.24312665  0.30951002     0.03500
C50         C  0.04956311  0.27748040  0.30699572    -0.17000
H51         H  0.07410312  0.28972885  0.29912521     0.05600
H52         H  0.46168690  0.23358326  0.33439933     0.05600
C53         C  0.28680745  0.49594906  0.30762098     0.03600
C54         C  0.30163163  0.03043761  0.31602883     0.03500
C55         C  0.28279741  0.04597041  0.32227182    -0.17000
C56         C  0.24935377  0.02760656  0.32033590     0.03600
C57         C  0.23448759  0.99310131  0.31191826     0.03500
C58         C  0.25335322  0.47760300  0.30539230    -0.17000
H59         H  0.24192563  0.45109667  0.29866233     0.05600
H60         H  0.29424536  0.07245784  0.32914666     0.05600
O61         O  0.09859956  0.04852161  0.03392327    -0.79600
O62         O  0.48079576  0.49057273  0.13490496    -0.64300
O63         O  0.04098137  0.00538986  0.06315297    -1.10900
C64         C  0.47677112  0.03867982  0.49813144     1.07300
O65         O  0.43861712  0.46572854  0.09692795    -0.77500
O66         O  0.45337951  0.45806530  0.02889079    -0.65100
Ni67       Ni  0.08535102  0.02962696  0.07900207     1.34900
C68         C  0.47355189  0.46061929  0.00597503     0.86000
O69         O  0.02809873  0.47587436  0.12837250    -0.78000
O70         O  0.07933873  0.01222723  0.12548936    -0.88300
C71         C  0.45096236  0.47348120  0.12869319     0.85600
O72         O  0.08173410  0.06703856  0.09804163    -0.66500
O73         O  0.45430289  0.01603665  0.51407237    -0.85800
C74         C  0.06259672  0.06585359  0.12187905     0.86400
C75         C  0.05696327  0.48823790  0.13978420     1.08000
H76         H  0.49713942  0.03857762  0.08176990     0.39800
O77         O  0.49400356  0.01793973  0.07004032    -1.08500
O78         O  0.00017236  0.48675996  0.00434045    -0.65100
Ni79       Ni  0.02430199  0.02756285  0.03394700     1.26300
O80         O  0.03684525  0.03951343  0.12659282    -0.65300
O81         O  0.00620925  0.04883752  0.50622391    -0.77600
C82         C  0.08560263  0.04820567  0.00383976     0.85800
O83         O  0.05590003  0.03833980  0.99907145    -0.64800
Ni84       Ni  0.44950181  0.49212449  0.05593415     1.27400
Ni85       Ni  0.01114978  0.49744504  0.09968450     1.26100
H86         H  0.03698986  0.48445732  0.05128025     0.40400
C87         C  0.42608004  0.05052759  0.42756184    -0.12100
C88         C  0.44890958  0.07675141  0.40954546     0.10100
C89         C  0.48126866  0.09099758  0.42128482    -0.12100
C90         C  0.49055008  0.07896096  0.45028533    -0.12100
C91         C  0.46757986  0.05268626  0.46822801     0.10100
C92         C  0.43525858  0.03875137  0.45654838    -0.12100
H93         H  0.40093130  0.03910100  0.41946004     0.14100
H94         H  0.49942805  0.11125843  0.40793033     0.14100
H95         H  0.01564667  0.09013605  0.45855864     0.14100
H96         H  0.41687782  0.01839239  0.46958011     0.14100
C97         C  0.33598638  0.05010595  0.32020532    -0.12000
C98         C  0.36441886  0.06625735  0.32664696    -0.13500
C99         C  0.46868124  0.16339630  0.32910182    -0.12000
C100        C  0.48485156  0.19202546  0.32324183    -0.13500
C101        C  0.05279910  0.43266910  0.21317674    -0.12100
C102        C  0.08411788  0.44984844  0.22868235     0.10100
C103        C  0.10552584  0.48026087  0.21577885    -0.12100
C104        C  0.09636845  0.99268330  0.18740113    -0.12100
C105        C  0.06542277  0.47522581  0.17116140     0.10400
C106        C  0.04349446  0.44531842  0.18470590    -0.12100
H107        H  0.03567940  0.40922049  0.22256692     0.14100
H108        H  0.12979257  0.99431761  0.22707897     0.14100
H109        H  0.11378499  0.01597361  0.17795080     0.14100
H110        H  0.01943345  0.43136739  0.17281781     0.14100
C111        C  0.17147923  0.45696706  0.30394112    -0.12000
C112        C  0.20009509  0.47322147  0.30887594    -0.13500
C113        C  0.06701661  0.35997904  0.30398922    -0.12000
C114        C  0.05093393  0.33134075  0.31000506    -0.13500
C115        C  0.04832465  0.09654646  0.16913842    -0.12100
C116        C  0.07136085  0.09504097  0.14725895     0.10100
C117        C  0.10340107  0.11950187  0.15304815    -0.12100
C118        C  0.11244552  0.14385769  0.18133344    -0.12100
C119        C  0.08957246  0.14458133  0.20401449     0.10100
C120        C  0.05730928  0.12122906  0.19705313    -0.12100
H121        H  0.02342810  0.07801606  0.16536265     0.14100
H122        H  0.12172225  0.11889839  0.13682988     0.14100
H123        H  0.13746536  0.16180712  0.18583705     0.14100
H124        H  0.03917239  0.12120069  0.21407299     0.14100
C125        C  0.05113727  0.22508692  0.30096321    -0.12000
C126        C  0.06741426  0.21258754  0.29195843    -0.13500
C127        C  0.19974497  0.23059148  0.30211504    -0.12000
C128        C  0.17176949  0.21849981  0.29320997    -0.13500
C129        C  0.15118326  0.06047194  0.44178013    -0.12100
C130        C  0.14810829  0.08024288  0.41640337     0.10100
C131        C  0.12397251  0.08949959  0.41973648    -0.12100
C132        C  0.10290193  0.07853029  0.44764257    -0.12100
C133        C  0.10643586  0.05913580  0.47324284     0.10100
C134        C  0.13093316  0.05041667  0.97014729    -0.12100
H135        H  0.16976358  0.05318937  0.94012916     0.14100
H136        H  0.12112888  0.10474893  0.40049372     0.14100
H137        H  0.08432992  0.08571272  0.44966517     0.14100
H138        H  0.13412552  0.03544265  0.98949595     0.14100
C139        C  0.21607958  0.16501780  0.33823250    -0.12000
C140        C  0.22985415  0.19346490  0.33060826    -0.13500
C141        C  0.23112033  0.04476149  0.32813210    -0.12000
C142        C  0.21778933  0.06071405  0.33632026    -0.13500
C143        C  0.43612030  0.48274648  0.19020104    -0.12100
C144        C  0.42999851  0.46186578  0.15893472     0.10100
C145        C  0.40289175  0.43050694  0.15618195    -0.12100
C146        C  0.38235861  0.42007027  0.18437910    -0.12100
C147        C  0.38800159  0.44129188  0.21519811     0.10100
C148        C  0.41495040  0.47275408  0.21787184    -0.12100
H149        H  0.45673143  0.50717734  0.19271881     0.14100
H150        H  0.39767808  0.41406535  0.13226220     0.14100
H151        H  0.36152679  0.39580978  0.18168583     0.14100
H152        H  0.41966148  0.48949234  0.24142594     0.14100
C153        C  0.30516243  0.47874844  0.30089494    -0.12000
C154        C  0.31866118  0.46276441  0.29369960    -0.13500
C155        C  0.30424057  0.32854664  0.29948799    -0.12000
C156        C  0.31727963  0.35679976  0.29122951    -0.13500
C157        C  0.42373595  0.38332678  0.44541344    -0.12100
C158        C  0.44640217  0.38272689  0.42241278     0.10100
C159        C  0.47860094  0.40672296  0.42850328    -0.12100
C160        C  0.48772568  0.43163114  0.45629243    -0.12100
C161        C  0.46488373  0.43259809  0.47888769     0.10100
C162        C  0.43290017  0.40777994  0.47350697    -0.12100
H163        H  0.39880545  0.36490792  0.44161478     0.14100
H164        H  0.49655990  0.40680231  0.41115262     0.14100
H165        H  0.51254890  0.45040702  0.45973514     0.14100
H166        H  0.41466625  0.40782314  0.49030542     0.14100
C167        C  0.33488344  0.29176768  0.32841131    -0.12000
C168        C  0.36301647  0.30422757  0.33692641    -0.13500
C169        C  0.48433531  0.29807126  0.33187334    -0.12000
C170        C  0.46773439  0.31046012  0.33989864    -0.13500
C171        C  0.43617414  0.35734392  0.89202501     0.81500
N172        N  0.40571988  0.34332809  0.87779321    -0.76800
C173        C  0.39574726  0.31945810  0.85050290     0.84000
N174        N  0.41616835  0.30899976  0.83762085    -0.76700
C175        C  0.44670264  0.32295640  0.85168247     0.84100
N176        N  0.45664132  0.34706744  0.87881525    -0.78500
C177        C  0.36519096  0.43100349  0.74382004     0.81500
N178        N  0.35292835  0.39988970  0.75496960    -0.76800
C179        C  0.33088089  0.39000964  0.78026468     0.84000
N180        N  0.32027620  0.41090071  0.79362162    -0.76700
C181        C  0.33226894  0.44191557  0.78237068     0.84100
N182        N  0.35476150  0.45194844  0.75757852    -0.78500
C183        C  0.17032654  0.09089531  0.88695091     0.81500
N184        N  0.18232435  0.07105123  0.87396887    -0.76800
C185        C  0.20394179  0.08110433  0.84827566     0.84000
N186        N  0.21434443  0.11155291  0.83605276    -0.76700
C187        C  0.20262830  0.13162903  0.84890712     0.84100
N188        N  0.18062788  0.12131075  0.87435226    -0.78500
C189        C  0.30071487  0.27648162  0.82110071     0.03600
C190        C  0.28602119  0.29439812  0.80795572     0.03500
C191        C  0.25271179  0.27886023  0.80242161    -0.17000
C192        C  0.23382250  0.24572834  0.80970059     0.03600
C193        C  0.24841811  0.22772749  0.82274958     0.03500
C194        C  0.28176905  0.24329532  0.82842813    -0.17000
H195        H  0.29303524  0.22953212  0.83869361     0.05600
H196        H  0.24141613  0.29258821  0.79211783     0.05600
C197        C  0.09959962  0.16873177  0.73555857     0.81500
N198        N  0.12983205  0.18190135  0.75021044    -0.76800
C199        C  0.13935736  0.20404560  0.77913050     0.84000
N200        N  0.11876491  0.21363955  0.79330475    -0.76700
C201        C  0.08845557  0.20053387  0.77886079     0.84100
N202        N  0.07890844  0.17811505  0.75006472    -0.78500
C203        C  0.09543116  0.43590399  0.75690671     0.81500
N204        N  0.12644772  0.45241687  0.76930796    -0.76800
C205        C  0.13799459  0.43952637  0.79355263     0.84000
N206        N  0.11845169  0.40948926  0.80554733    -0.76700
C207        C  0.08724653  0.39280973  0.79352974     0.84100
N208        N  0.07586879  0.40588728  0.76903839    -0.78500
C209        C  0.43855205  0.08923378  0.87918839     0.81500
N210        N  0.45862937  0.11868397  0.86632854    -0.76800
C211        C  0.44824450  0.13076732  0.83981153     0.84000
N212        N  0.41753221  0.11358924  0.82628153    -0.76700
C213        C  0.39749366  0.08401074  0.83886606     0.84100
N214        N  0.40799340  0.07212986  0.86532926    -0.78500
C215        C  0.03384250  0.29616338  0.81416583     0.03600
C216        C  0.00186278  0.28018953  0.82401378     0.03500
C217        C  0.48628232  0.24585480  0.82664643    -0.17000
C218        C  0.00201688  0.22718064  0.81940923     0.03600
C219        C  0.03395166  0.24311485  0.80952446     0.03500
C220        C  0.04958437  0.27746762  0.80700324    -0.17000
H221        H  0.07412189  0.28971669  0.79912462     0.05600
H222        H  0.46171659  0.23356658  0.83443462     0.05600
C223        C  0.28683085  0.49593329  0.80760546     0.03600
C224        C  0.30165959  0.03041225  0.81604393     0.03500
C225        C  0.28282890  0.04594835  0.82228872    -0.17000
C226        C  0.24938518  0.02758939  0.82034510     0.03600
C227        C  0.23451386  0.99308583  0.81191575     0.03500
C228        C  0.25337657  0.47758532  0.80538079    -0.17000
H229        H  0.24195003  0.45107928  0.79864918     0.05600
H230        H  0.29427970  0.07243511  0.82916895     0.05600
O231        O  0.09856965  0.04855173  0.53388628    -0.79600
O232        O  0.48083145  0.49057050  0.63492731    -0.64300
O233        O  0.04096036  0.00539044  0.56311713    -1.10900
C234        C  0.47680831  0.03864909  0.99810884     1.07300
O235        O  0.43864166  0.46572837  0.59696678    -0.77500
O236        O  0.45337110  0.45807013  0.52891279    -0.65100
Ni237      Ni  0.08533363  0.02962354  0.57895091     1.34900
C238        C  0.47354042  0.46061804  0.50599536     0.86000
O239        O  0.02812980  0.47587040  0.62836091    -0.78000
O240        O  0.07933464  0.01219188  0.62541958    -0.88300
C241        C  0.45099679  0.47347846  0.62872784     0.85600
O242        O  0.08172477  0.06702608  0.59803637    -0.66500
O243        O  0.45433840  0.01599443  0.01403632    -0.85800
C244        C  0.06258921  0.06583321  0.62187898     0.86400
C245        C  0.05700020  0.48821610  0.63974452     1.08000
H246        H  0.49713002  0.03857752  0.58177425     0.39800
O247        O  0.49398553  0.01793975  0.57003554    -1.08500
O248        O  0.00016304  0.48675456  0.50435617    -0.65100
Ni249      Ni  0.02427228  0.02756681  0.53392817     1.26300
O250        O  0.03683509  0.03949319  0.62658324    -0.65300
O251        O  0.00624560  0.04882944  0.00622841    -0.77600
C252        C  0.08556589  0.04822755  0.50380447     0.85800
O253        O  0.05585994  0.03834489  0.49903922    -0.64800
Ni254      Ni  0.44951097  0.49213079  0.55597737     1.27400
Ni255      Ni  0.01117352  0.49744456  0.59969050     1.26100
H256        H  0.03699989  0.48446017  0.55126940     0.40400
C257        C  0.42612750  0.05044795  0.92748835    -0.12100
C258        C  0.44895116  0.07671106  0.90951306     0.10100
C259        C  0.48130485  0.09098923  0.92128632    -0.12100
C260        C  0.49058585  0.07895135  0.95028588    -0.12100
C261        C  0.46761998  0.05264296  0.96819238     0.10100
C262        C  0.43530529  0.03866982  0.95647259    -0.12100
H263        H  0.40098296  0.03899286  0.91935842     0.14100
H264        H  0.49945993  0.11128018  0.90796348     0.14100
H265        H  0.01567763  0.09015546  0.95859074     0.14100
H266        H  0.41692889  0.01828235  0.96947416     0.14100
C267        C  0.33601489  0.05007973  0.82021663    -0.12000
C268        C  0.36444797  0.06623643  0.82665182    -0.13500
C269        C  0.46871022  0.16338107  0.82911072    -0.12000
C270        C  0.48488134  0.19201199  0.82325909    -0.13500
C271        C  0.05283254  0.43264899  0.71314168    -0.12100
C272        C  0.08416406  0.44980322  0.72861477     0.10100
C273        C  0.10558896  0.48019094  0.71567583    -0.12100
C274        C  0.09638914  0.99263376  0.68730124    -0.12100
C275        C  0.06546834  0.47519056  0.67110377     0.10400
C276        C  0.04352763  0.44530359  0.68467603    -0.12100
H277        H  0.03570017  0.40921937  0.72255889     0.14100
H278        H  0.12982716  0.99426673  0.72696009     0.14100
H279        H  0.11380626  0.01591766  0.67783890     0.14100
H280        H  0.01945376  0.43137500  0.67281802     0.14100
C281        C  0.17150177  0.45694141  0.80393206    -0.12000
C282        C  0.20011696  0.47319904  0.80887288    -0.13500
C283        C  0.06703266  0.35995956  0.80397732    -0.12000
C284        C  0.05094834  0.33132426  0.81000387    -0.13500
C285        C  0.04832270  0.09652346  0.66914867    -0.12100
C286        C  0.07135802  0.09501315  0.64727169     0.10100
C287        C  0.10340104  0.11946415  0.65306968    -0.12100
C288        C  0.11244846  0.14381607  0.68135912    -0.12100
C289        C  0.08957598  0.14454624  0.70403624     0.10100
C290        C  0.05731055  0.12120314  0.69706761    -0.12100
H291        H  0.02342405  0.07800049  0.66536575     0.14100
H292        H  0.12172154  0.11885640  0.63685361     0.14100
H293        H  0.13747000  0.16175816  0.68586790     0.14100
H294        H  0.03917383  0.12118020  0.71408394     0.14100
C295        C  0.05116306  0.22507564  0.80097692    -0.12000
C296        C  0.06743480  0.21256973  0.79197423    -0.13500
C297        C  0.19975477  0.23056110  0.80213847    -0.12000
C298        C  0.17177966  0.21846317  0.79322922    -0.13500
C299        C  0.15123124  0.06045657  0.94182479    -0.12100
C300        C  0.14814546  0.08021332  0.91643750     0.10100
C301        C  0.12399903  0.08945504  0.91975935    -0.12100
C302        C  0.10292993  0.07848732  0.94766597    -0.12100
C303        C  0.10647489  0.05910935  0.97327890     0.10100
C304        C  0.13088449  0.05043031  0.47010099    -0.12100
H305        H  0.16970744  0.05319353  0.44007723     0.14100
H306        H  0.12114643  0.10469226  0.90050759     0.14100
H307        H  0.08434993  0.08565892  0.94967908     0.14100
H308        H  0.13406849  0.03544432  0.48944071     0.14100
C309        C  0.21609837  0.16499372  0.83826332    -0.12000
C310        C  0.22986724  0.19344100  0.83063902    -0.13500
C311        C  0.23115635  0.04474736  0.82814655    -0.12000
C312        C  0.21782780  0.06070013  0.83634222    -0.13500
C313        C  0.43616490  0.48273990  0.69024421    -0.12100
C314        C  0.43004341  0.46185827  0.65897843     0.10100
C315        C  0.40294504  0.43049308  0.65623426    -0.12100
C316        C  0.38241824  0.42005231  0.68443711    -0.12100
C317        C  0.38805816  0.44127544  0.71525410     0.10100
C318        C  0.41500054  0.47274299  0.71792087    -0.12100
H319        H  0.45676963  0.50717544  0.69275599     0.14100
H320        H  0.39773183  0.41405049  0.63231546     0.14100
H321        H  0.36159105  0.39578833  0.68174788     0.14100
H322        H  0.41970894  0.48948351  0.74147228     0.14100
C323        C  0.30518710  0.47873281  0.80088579    -0.12000
C324        C  0.31868789  0.46274806  0.79370397    -0.13500
C325        C  0.30425034  0.32852642  0.79952368    -0.12000
C326        C  0.31729859  0.35678029  0.79126608    -0.13500
C327        C  0.42375740  0.38331139  0.94541173    -0.12100
C328        C  0.44641966  0.38272507  0.92239615     0.10100
C329        C  0.47861407  0.40673915  0.92846574    -0.12100
C330        C  0.48773783  0.43165017  0.95625196    -0.12100
C331        C  0.46489967  0.43260145  0.97886505     0.10100
C332        C  0.43292099  0.40776695  0.97350213    -0.12100
H333        H  0.39883058  0.36487852  0.94162846     0.14100
H334        H  0.49656928  0.40682908  0.91110179     0.14100
H335        H  0.51255687  0.45043942  0.95967919     0.14100
H336        H  0.41468937  0.40779718  0.99031379     0.14100
C337        C  0.33489254  0.29174312  0.82843375    -0.12000
C338        C  0.36302703  0.30420067  0.83693906    -0.13500
C339        C  0.48435317  0.29805011  0.83189398    -0.12000
C340        C  0.46774672  0.31043334  0.83991580    -0.13500
C341        C  0.43614623  0.85735461  0.39202262     0.81500
N342        N  0.40569418  0.84333936  0.37778377    -0.76800
C343        C  0.39572777  0.81947444  0.35048859     0.84000
N344        N  0.41615233  0.80902041  0.33760876    -0.76700
C345        C  0.44668402  0.82297533  0.35167693     0.84100
N346        N  0.45661726  0.84708183  0.37881474    -0.78500
C347        C  0.36514044  0.93102884  0.24381394     0.81500
N348        N  0.35288838  0.89991713  0.25496585    -0.76800
C349        C  0.33085131  0.89003508  0.28027156     0.84000
N350        N  0.32024557  0.91092247  0.29363810    -0.76700
C351        C  0.33222802  0.94193604  0.28238505     0.84100
N352        N  0.35471087  0.95197073  0.25758155    -0.78500
C353        C  0.17029610  0.59090001  0.38688406     0.81500
N354        N  0.18228899  0.57105261  0.37389898    -0.76800
C355        C  0.20390597  0.58110364  0.34820560     0.84000
N356        N  0.21431351  0.61155402  0.33598538    -0.76700
C357        C  0.20260192  0.63163360  0.34884230     0.84100
N358        N  0.18060212  0.62131726  0.37428837    -0.78500
C359        C  0.30070094  0.77649081  0.32105731     0.03600
C360        C  0.28600879  0.79441126  0.30791949     0.03500
C361        C  0.25270060  0.77887344  0.30237669    -0.17000
C362        C  0.23380974  0.74573986  0.30964707     0.03600
C363        C  0.24840302  0.72773458  0.32269043     0.03500
C364        C  0.28175397  0.74330075  0.32837152    -0.17000
H365        H  0.29301873  0.72953485  0.33863335     0.05600
H366        H  0.24140641  0.79260494  0.29207861     0.05600
C367        C  0.09959182  0.66876515  0.23550810     0.81500
N368        N  0.12982296  0.68193554  0.25016261    -0.76800
C369        C  0.13934623  0.70407947  0.27908210     0.84000
N370        N  0.11875207  0.71367215  0.29325493    -0.76700
C371        C  0.08844292  0.70056518  0.27880861     0.84100
N372        N  0.07889830  0.67814638  0.25001222    -0.78500
C373        C  0.09539311  0.93594203  0.25698191     0.81500
N374        N  0.12641001  0.95245397  0.26938150    -0.76800
C375        C  0.13796035  0.93955686  0.29361430     0.84000
N376        N  0.11842108  0.90951332  0.30559744    -0.76700
C377        C  0.08721557  0.89283449  0.29358118     0.84100
N378        N  0.07583419  0.90591912  0.26910233    -0.78500
C379        C  0.43853812  0.58926360  0.37921457     0.81500
N380        N  0.45861596  0.61870565  0.36633748    -0.76800
C381        C  0.44822794  0.63077890  0.33981209     0.84000
N382        N  0.41751343  0.61359827  0.32629064    -0.76700
C383        C  0.39747484  0.58402835  0.33889169     0.84100
N384        N  0.40797669  0.57215759  0.36536355    -0.78500
C385        C  0.03381419  0.79617224  0.31415874     0.03600
C386        C  0.00183162  0.78019471  0.32399545     0.03500
C387        C  0.48624899  0.74585720  0.32661145    -0.17000
C388        C  0.00198585  0.72718491  0.31937157     0.03600
C389        C  0.03392265  0.74312348  0.30949217     0.03500
C390        C  0.04955624  0.77747834  0.30698671    -0.17000
H391        H  0.07409588  0.78973126  0.29911547     0.05600
H392        H  0.46168179  0.73356631  0.33439438     0.05600
C393        C  0.28679258  0.99595501  0.30763113     0.03600
C394        C  0.30164341  0.53042861  0.31603943     0.03500
C395        C  0.28280612  0.54595826  0.32227654    -0.17000
C396        C  0.24936275  0.52759426  0.32031523     0.03600
C397        C  0.23449925  0.49309129  0.31188405     0.03500
C398        C  0.25333845  0.97761010  0.30542197    -0.17000
H399        H  0.24190834  0.95110173  0.29870522     0.05600
H400        H  0.29425114  0.57244371  0.32916362     0.05600
O401        O  0.09860598  0.54852131  0.03390195    -0.79600
O402        O  0.48079262  0.99058144  0.13493831    -0.64300
O403        O  0.04098646  0.50539063  0.06312314    -1.10900
C404        C  0.47680981  0.53868309  0.49813133     1.07300
O405        O  0.43861113  0.96572636  0.09696592    -0.77500
O406        O  0.45338601  0.95804357  0.02893736    -0.65100
Ni407      Ni  0.08535477  0.52962290  0.07897771     1.34900
C408        C  0.47355400  0.96060259  0.00601377     0.86000
O409        O  0.02809841  0.97588659  0.12841028    -0.78000
O410        O  0.07933875  0.51221983  0.12546382    -0.88300
C411        C  0.45095882  0.97348648  0.12873021     0.85600
O412        O  0.08173769  0.56703318  0.09801957    -0.66500
O413        O  0.45434234  0.51604439  0.51407816    -0.85800
C414        C  0.06260039  0.56584584  0.12185800     0.86400
C415        C  0.05696465  0.98824753  0.13981422     1.08000
H416        H  0.49715308  0.53858361  0.08174908     0.39800
O417        O  0.49401246  0.51794566  0.07001501    -1.08500
O418        O  0.00016707  0.98674975  0.00436880    -0.65100
Ni419      Ni  0.02431052  0.52757027  0.03392144     1.26300
O420        O  0.03684948  0.53950470  0.12657050    -0.65300
O421        O  0.00624826  0.54883767  0.50621862    -0.77600
C422        C  0.08561152  0.54821137  0.00381909     0.85800
O423        O  0.05590974  0.53834871  0.99904825    -0.64800
Ni424      Ni  0.44949438  0.99210534  0.05595776     1.27400
Ni425      Ni  0.01114577  0.99744899  0.09971619     1.26100
H426        H  0.03698501  0.98445513  0.05131416     0.40400
C427        C  0.42611225  0.55053320  0.42757249    -0.12100
C428        C  0.44893991  0.57675153  0.40954786     0.10100
C429        C  0.48130119  0.59099242  0.42127655    -0.12100
C430        C  0.49058585  0.57895657  0.45027585    -0.12100
C431        C  0.46761687  0.55268820  0.46822755     0.10100
C432        C  0.43529406  0.53875811  0.45655721    -0.12100
H433        H  0.40096195  0.53911016  0.41947918     0.14100
H434        H  0.49945927  0.61124855  0.40791517     0.14100
H435        H  0.01568378  0.59012752  0.45854156     0.14100
H436        H  0.41691413  0.51840391  0.46959544     0.14100
C437        C  0.33599716  0.55009816  0.32023366    -0.12000
C438        C  0.36442882  0.56625249  0.32667963    -0.13500
C439        C  0.46869101  0.66338750  0.32909359    -0.12000
C440        C  0.48485539  0.69201624  0.32322729    -0.13500
C441        C  0.05279105  0.93269397  0.21322796    -0.12100
C442        C  0.08412351  0.94984654  0.22869828     0.10100
C443        C  0.10554795  0.98023500  0.21576035    -0.12100
C444        C  0.09634663  0.49270494  0.18741483    -0.12100
C445        C  0.06542817  0.97523218  0.17118570     0.10400
C446        C  0.04348634  0.94534769  0.18476151    -0.12100
H447        H  0.03565859  0.90926462  0.22264563     0.14100
H448        H  0.12975824  0.49436541  0.22712763     0.14100
H449        H  0.11375061  0.51601435  0.17799036     0.14100
H450        H  0.01941262  0.93141839  0.17290332     0.14100
C451        C  0.17146787  0.95697185  0.30399026    -0.12000
C452        C  0.20008336  0.97323091  0.30892405    -0.13500
C453        C  0.06700617  0.85997716  0.30401189    -0.12000
C454        C  0.05092318  0.83133685  0.31001976    -0.13500
C455        C  0.04832520  0.59654428  0.16910816    -0.12100
C456        C  0.07136418  0.59503185  0.14723911     0.10100
C457        C  0.10340579  0.61948605  0.15303719    -0.12100
C458        C  0.11244817  0.64384383  0.18131951    -0.12100
C459        C  0.08957198  0.64457644  0.20398915     0.10100
C460        C  0.05730802  0.62122961  0.19701995    -0.12100
H461        H  0.02342760  0.57801827  0.16532532     0.14100
H462        H  0.12172904  0.61887617  0.13682782     0.14100
H463        H  0.13746898  0.66178795  0.18582964     0.14100
H464        H  0.03916884  0.62120778  0.21403129     0.14100
C465        C  0.05113757  0.72508890  0.30093636    -0.12000
C466        C  0.06741605  0.71259235  0.29192667    -0.13500
C467        C  0.19974195  0.73057959  0.30208994    -0.12000
C468        C  0.17176703  0.71849192  0.29318423    -0.13500
C469        C  0.15121191  0.56046684  0.44176203    -0.12100
C470        C  0.14812108  0.58022182  0.41637617     0.10100
C471        C  0.12397741  0.58946672  0.41970642    -0.12100
C472        C  0.10291559  0.57850345  0.44762033    -0.12100
C473        C  0.10646622  0.55912742  0.47323147     0.10100
C474        C  0.13093588  0.55041231  0.97012553    -0.12100
H475        H  0.16975901  0.55317220  0.94010319     0.14100
H476        H  0.12112143  0.60470285  0.40045582     0.14100
H477        H  0.08433695  0.58567646  0.44964014     0.14100
H478        H  0.13412123  0.53543084  0.98947001     0.14100
C479        C  0.21607722  0.66499990  0.33820123    -0.12000
C480        C  0.22984936  0.69344753  0.33057776    -0.13500
C481        C  0.23112615  0.54474721  0.32809797    -0.12000
C482        C  0.21779342  0.56069907  0.33627880    -0.13500
C483        C  0.43611227  0.98276220  0.19023420    -0.12100
C484        C  0.42999666  0.96187445  0.15897486     0.10100
C485        C  0.40289671  0.93051027  0.15623122    -0.12100
C486        C  0.38236521  0.92007498  0.18443032    -0.12100
C487        C  0.38800214  0.94130258  0.21524273     0.10100
C488        C  0.41494347  0.97277064  0.21790685    -0.12100
H489        H  0.45671756  0.00719730  0.19274495     0.14100
H490        H  0.39768727  0.91406316  0.13231701     0.14100
H491        H  0.36153903  0.89581013  0.18174339     0.14100
H492        H  0.41964982  0.98951411  0.24145509     0.14100
C493        C  0.30514460  0.97874942  0.30091247    -0.12000
C494        C  0.31864484  0.96276455  0.29372750    -0.13500
C495        C  0.30423661  0.82854628  0.29951064    -0.12000
C496        C  0.31727783  0.85680496  0.29126850    -0.13500
C497        C  0.42371604  0.88332175  0.44540189    -0.12100
C498        C  0.44638495  0.88273125  0.42239881     0.10100
C499        C  0.47858025  0.90673759  0.42848526    -0.12100
C500        C  0.48769925  0.93164468  0.45627481    -0.12100
C501        C  0.46485517  0.93260066  0.47887475     0.10100
C502        C  0.43287477  0.90777397  0.47349599    -0.12100
H503        H  0.39878796  0.86489512  0.44160577     0.14100
H504        H  0.49654069  0.90682470  0.41113188     0.14100
H505        H  0.51251996  0.95042765  0.45971496     0.14100
H506        H  0.41463910  0.90780862  0.49029756     0.14100
C507        C  0.33487706  0.79175404  0.32840234    -0.12000
C508        C  0.36300983  0.80421542  0.33691731    -0.13500
C509        C  0.48432550  0.79805765  0.33188641    -0.12000
C510        C  0.46772731  0.81044976  0.33991323    -0.13500
C511        C  0.43618441  0.85733208  0.89205913     0.81500
N512        N  0.40572981  0.84331624  0.87782786    -0.76800
C513        C  0.39575911  0.81945308  0.85053062     0.84000
N514        N  0.41618253  0.80900213  0.83763982    -0.76700
C515        C  0.44671682  0.82295798  0.85170036     0.84100
N516        N  0.45665394  0.84706205  0.87884097    -0.78500
C517        C  0.36514654  0.93099173  0.74381071     0.81500
N518        N  0.35290139  0.89988275  0.75496900    -0.76800
C519        C  0.33087035  0.89000377  0.78028169     0.84000
N520        N  0.32026411  0.91089074  0.79364805    -0.76700
C521        C  0.33223977  0.94190101  0.78238790     0.84100
N522        N  0.35471655  0.95193305  0.75757807    -0.78500
C523        C  0.17033348  0.59088844  0.88693155     0.81500
N524        N  0.18232330  0.57103774  0.87394757    -0.76800
C525        C  0.20393851  0.58108505  0.84825192     0.84000
N526        N  0.21434683  0.61153439  0.83602852    -0.76700
C527        C  0.20263791  0.63161648  0.84888475     0.84100
N528        N  0.18064008  0.62130404  0.87433234    -0.78500
C529        C  0.30072975  0.77647496  0.82111070     0.03600
C530        C  0.28603710  0.79439390  0.80797012     0.03500
C531        C  0.25272829  0.77885683  0.80243158    -0.17000
C532        C  0.23383790  0.74572320  0.80970226     0.03600
C533        C  0.24843272  0.72771842  0.82274260     0.03500
C534        C  0.28178329  0.74328548  0.82842578    -0.17000
H535        H  0.29304841  0.72951967  0.83868693     0.05600
H536        H  0.24143373  0.79258766  0.79213265     0.05600
C537        C  0.09962460  0.66873320  0.73555368     0.81500
N538        N  0.12985293  0.68190094  0.75021637    -0.76800
C539        C  0.13937450  0.70405175  0.77912987     0.84000
N540        N  0.11878172  0.71365389  0.79328736    -0.76700
C541        C  0.08847555  0.70054898  0.77883272     0.84100
N542        N  0.07893280  0.67812396  0.75004280    -0.78500
C543        C  0.09542268  0.93591841  0.75691140     0.81500
N544        N  0.12643826  0.95243806  0.76931766    -0.76800
C545        C  0.13798674  0.93955214  0.79356702     0.84000
N546        N  0.11844712  0.90951309  0.80555956    -0.76700
C547        C  0.08724380  0.89282704  0.79353659     0.84100
N548        N  0.07586424  0.90590017  0.76904218    -0.78500
C549        C  0.43856529  0.58925002  0.87915976     0.81500
N550        N  0.45864242  0.61869483  0.86628865    -0.76800
C551        C  0.44825342  0.63077377  0.83977037     0.84000
N552        N  0.41753778  0.61359634  0.82625046    -0.76700
C553        C  0.39749977  0.58402309  0.83884598     0.84100
N554        N  0.40800340  0.57214701  0.86531030    -0.78500
C555        C  0.03384856  0.79617068  0.81413810     0.03600
C556        C  0.00186902  0.78019366  0.82398536     0.03500
C557        C  0.48628729  0.74585680  0.82660308    -0.17000
C558        C  0.00202205  0.72718422  0.81935603     0.03600
C559        C  0.03395770  0.74312240  0.80947325     0.03500
C560        C  0.04959004  0.77747665  0.80696278    -0.17000
H561        H  0.07412818  0.78972890  0.79908647     0.05600
H562        H  0.46172172  0.73356632  0.83439157     0.05600
C563        C  0.28681618  0.99592973  0.80764185     0.03600
C564        C  0.30166539  0.53041335  0.81602157     0.03500
C565        C  0.28282660  0.54593945  0.82227071    -0.17000
C566        C  0.24938346  0.52757260  0.82032034     0.03600
C567        C  0.23452115  0.49307072  0.81188132     0.03500
C568        C  0.25336127  0.97758984  0.80542373    -0.17000
H569        H  0.24192788  0.95108231  0.79870038     0.05600
H570        H  0.29427059  0.57242452  0.82916000     0.05600
O571        O  0.09860848  0.54855635  0.53388033    -0.79600
O572        O  0.48078520  0.99055881  0.63492392    -0.64300
O573        O  0.04099928  0.50539360  0.56311455    -1.10900
C574        C  0.47682191  0.53867685  0.99809297     1.07300
O575        O  0.43859996  0.96571640  0.59695603    -0.77500
O576        O  0.45333499  0.95806372  0.52890312    -0.65100
Ni577      Ni  0.08537381  0.52962552  0.57894519     1.34900
C578        C  0.47350675  0.96061699  0.50598662     0.86000
O579        O  0.02809188  0.97586633  0.62836736    -0.78000
O580        O  0.07937479  0.51219029  0.62541283    -0.88300
C581        C  0.45095070  0.97346725  0.62871892     0.85600
O582        O  0.08176932  0.56702935  0.59803568    -0.66500
O583        O  0.45434961  0.51603119  0.01402698    -0.85800
C584        C  0.06263319  0.56583683  0.62187732     0.86400
C585        C  0.05696315  0.98821509  0.63975095     1.08000
H586        H  0.49717550  0.53858775  0.58177409     0.39800
O587        O  0.49402783  0.51794836  0.57003646    -1.08500
O588        O  0.00012855  0.98675580  0.50435263    -0.65100
Ni589      Ni  0.02431100  0.52756825  0.53392527     1.26300
O590        O  0.03687861  0.53949789  0.62658086    -0.65300
O591        O  0.00625843  0.54884307  0.00620365    -0.77600
C592        C  0.08560114  0.54822371  0.50379740     0.85800
O593        O  0.05589446  0.53833732  0.49903386    -0.64800
Ni594      Ni  0.44947014  0.99212083  0.55596964     1.27400
Ni595      Ni  0.01113264  0.99743788  0.59969212     1.26100
H596        H  0.03696217  0.98445794  0.55127044     0.40400
C597        C  0.42613889  0.55050090  0.92749626    -0.12100
C598        C  0.44896640  0.57673363  0.90948896     0.10100
C599        C  0.48132470  0.59098730  0.92123513    -0.12100
C600        C  0.49060592  0.57895354  0.95023917    -0.12100
C601        C  0.46763584  0.55267458  0.96817725     0.10100
C602        C  0.43531689  0.53872786  0.95648474    -0.12100
H603        H  0.40099094  0.53906613  0.91938837     0.14100
H604        H  0.49948267  0.61125418  0.90788643     0.14100
H605        H  0.01570116  0.59013615  0.95852118     0.14100
H606        H  0.41693646  0.51836376  0.96951050     0.14100
C607        C  0.33601963  0.55008777  0.82020217    -0.12000
C608        C  0.36445238  0.56624749  0.82663815    -0.13500
C609        C  0.46871832  0.66338435  0.82905929    -0.12000
C610        C  0.48488827  0.69201456  0.82320296    -0.13500
C611        C  0.05281204  0.93266292  0.71316196    -0.12100
C612        C  0.08415117  0.94981154  0.72861588     0.10100
C613        C  0.10557678  0.98018857  0.71565718    -0.12100
C614        C  0.09640941  0.49263981  0.68731724    -0.12100
C615        C  0.06543898  0.97519155  0.67110849     0.10400
C616        C  0.04349907  0.94531379  0.68469840    -0.12100
H617        H  0.03567865  0.90924128  0.72259443     0.14100
H618        H  0.12983302  0.49427440  0.72699586     0.14100
H619        H  0.11382511  0.51593165  0.67786914     0.14100
H620        H  0.01941878  0.93139008  0.67285704     0.14100
C621        C  0.17149317  0.95697132  0.80395269    -0.12000
C622        C  0.20010834  0.97322379  0.80890182    -0.13500
C623        C  0.06703580  0.85997300  0.80397719    -0.12000
C624        C  0.05095475  0.83133429  0.80999243    -0.13500
C625        C  0.04835915  0.59653137  0.66913249    -0.12100
C626        C  0.07140017  0.59501554  0.64726986     0.10100
C627        C  0.10344451  0.61945809  0.65308322    -0.12100
C628        C  0.11248678  0.64380836  0.68137318    -0.12100
C629        C  0.08960782  0.64454535  0.70403481     0.10100
C630        C  0.05734210  0.62120961  0.69705181    -0.12100
H631        H  0.02345928  0.57801421  0.66533738     0.14100
H632        H  0.12176894  0.61884475  0.63687882     0.14100
H633        H  0.13750897  0.66174451  0.68589366     0.14100
H634        H  0.03920067  0.62119202  0.71405639     0.14100
C635        C  0.05117369  0.72508784  0.80092601    -0.12000
C636        C  0.06745142  0.71258655  0.79193140    -0.13500
C637        C  0.19976977  0.73056031  0.80214376    -0.12000
C638        C  0.17179467  0.71846771  0.79323597    -0.13500
C639        C  0.15123356  0.56044900  0.94180306    -0.12100
C640        C  0.14815525  0.58021331  0.91642031     0.10100
C641        C  0.12401888  0.58946903  0.91974845    -0.12100
C642        C  0.10294998  0.57850486  0.94765525    -0.12100
C643        C  0.10648573  0.55911633  0.97326137     0.10100
C644        C  0.13092188  0.55043202  0.47009147    -0.12100
H645        H  0.16974236  0.55319734  0.44006007     0.14100
H646        H  0.12117326  0.60471354  0.90050088     0.14100
H647        H  0.08437685  0.58568606  0.94967313     0.14100
H648        H  0.13411782  0.53545902  0.48943874     0.14100
C649        C  0.21611231  0.66498111  0.83824111    -0.12000
C650        C  0.22988149  0.69342965  0.83062190    -0.13500
C651        C  0.23114696  0.54472205  0.82812326    -0.12000
C652        C  0.21781844  0.56067500  0.83631861    -0.13500
C653        C  0.43612340  0.98272091  0.69023977    -0.12100
C654        C  0.42999192  0.96184777  0.65896488     0.10100
C655        C  0.40287945  0.93049282  0.65620788    -0.12100
C656        C  0.38235105  0.92005208  0.68440916    -0.12100
C657        C  0.38800467  0.94126606  0.71523732     0.10100
C658        C  0.41495834  0.97272477  0.71791521    -0.12100
H659        H  0.45673828  0.00714908  0.69276119     0.14100
H660        H  0.39765755  0.91405733  0.63228136     0.14100
H661        H  0.36151459  0.89579510  0.68171243     0.14100
H662        H  0.41967655  0.98945755  0.74147600     0.14100
C663        C  0.30516376  0.97871969  0.80092230    -0.12000
C664        C  0.31865926  0.96273074  0.79373438    -0.13500
C665        C  0.30426551  0.82852433  0.79954698    -0.12000
C666        C  0.31730494  0.85677831  0.79129039    -0.13500
C667        C  0.42376070  0.88330730  0.94543477    -0.12100
C668        C  0.44642826  0.88270973  0.92243483     0.10100
C669        C  0.47862537  0.90671217  0.92852166    -0.12100
C670        C  0.48774702  0.93162283  0.95630839    -0.12100
C671        C  0.46490366  0.93258445  0.97890535     0.10100
C672        C  0.43292180  0.90776203  0.97352560    -0.12100
H673        H  0.39883125  0.86488486  0.94163812     0.14100
H674        H  0.49658490  0.90679401  0.91117030     0.14100
H675        H  0.51256857  0.95040357  0.95974903     0.14100
H676        H  0.41468634  0.90780253  0.99032335     0.14100
C677        C  0.33490621  0.79173745  0.82845340    -0.12000
C678        C  0.36303949  0.80419624  0.83696515    -0.13500
C679        C  0.48436319  0.79805477  0.83188491    -0.12000
C680        C  0.46776147  0.81043972  0.83992211    -0.13500
C681        C  0.93615764  0.35735297  0.39203339     0.81500
N682        N  0.90570441  0.34334142  0.37779811    -0.76800
C683        C  0.89573529  0.31948215  0.35049636     0.84000
N684        N  0.91615871  0.30903064  0.33760627    -0.76700
C685        C  0.94669137  0.32298241  0.35167112     0.84100
N686        N  0.95662671  0.34708250  0.37881532    -0.78500
C687        C  0.86513958  0.43101863  0.24376764     0.81500
N688        N  0.85288440  0.39990590  0.25491694    -0.76800
C689        C  0.83085018  0.39002659  0.28022557     0.84000
N690        N  0.82025092  0.41091737  0.29359775    -0.76700
C691        C  0.83223658  0.44193174  0.28234728     0.84100
N692        N  0.85471672  0.45196437  0.25754092    -0.78500
C693        C  0.67028952  0.09092107  0.38691602     0.81500
N694        N  0.68228307  0.07107225  0.37393599    -0.76800
C695        C  0.70390346  0.08112138  0.34824578     0.84000
N696        N  0.71431299  0.11157110  0.33602324    -0.76700
C697        C  0.70260119  0.13165208  0.34887506     0.84100
N698        N  0.68059830  0.12133782  0.37431799    -0.78500
C699        C  0.80070637  0.27650327  0.32106801     0.03600
C700        C  0.78601318  0.29441900  0.30791954     0.03500
C701        C  0.75270421  0.27888288  0.30238569    -0.17000
C702        C  0.73381348  0.24575308  0.30966899     0.03600
C703        C  0.74840779  0.22775049  0.32271685     0.03500
C704        C  0.78175922  0.24331662  0.32839455    -0.17000
H705        H  0.79302426  0.22955292  0.33866162     0.05600
H706        H  0.74140954  0.29261180  0.29208165     0.05600
C707        C  0.59959319  0.16876758  0.23553565     0.81500
N708        N  0.62982559  0.18194078  0.25018782    -0.76800
C709        C  0.63934771  0.20408296  0.27910933     0.84000
N710        N  0.61875150  0.21367107  0.29328545    -0.76700
C711        C  0.58844153  0.20056114  0.27884122     0.84100
N712        N  0.57889805  0.17814432  0.25004354    -0.78500
C713        C  0.59539372  0.43594440  0.25696086     0.81500
N714        N  0.62641362  0.45245501  0.26935080    -0.76800
C715        C  0.63796945  0.43955545  0.29357504     0.84000
N716        N  0.61843256  0.40951213  0.30556004    -0.76700
C717        C  0.58722449  0.39283504  0.29355385     0.84100
N718        N  0.57583781  0.40592108  0.26908257    -0.78500
C719        C  0.93851391  0.08926478  0.37920882     0.81500
N720        N  0.95859437  0.11871009  0.36634090    -0.76800
C721        C  0.94821443  0.13078565  0.33981113     0.84000
N722        N  0.91750446  0.11360413  0.32627557    -0.76700
C723        C  0.89746284  0.08403055  0.33886737     0.84100
N724        N  0.90795696  0.07215731  0.36534429    -0.78500
C725        C  0.53382317  0.29617828  0.31415612     0.03600
C726        C  0.50184028  0.28020587  0.32399226     0.03500
C727        C  0.98625470  0.24586996  0.32661784    -0.17000
C728        C  0.50198834  0.22719354  0.31938667     0.03600
C729        C  0.53392591  0.24312661  0.30951001     0.03500
C730        C  0.54956303  0.27748035  0.30699575    -0.17000
H731        H  0.57410302  0.28972879  0.29912526     0.05600
H732        H  0.96168690  0.23358322  0.33439928     0.05600
C733        C  0.78680747  0.49594907  0.30762098     0.03600
C734        C  0.80163164  0.03043761  0.31602883     0.03500
C735        C  0.78279742  0.04597042  0.32227182    -0.17000
C736        C  0.74935378  0.02760656  0.32033590     0.03600
C737        C  0.73448760  0.99310131  0.31191826     0.03500
C738        C  0.75335325  0.47760300  0.30539230    -0.17000
H739        H  0.74192571  0.45109667  0.29866232     0.05600
H740        H  0.79424539  0.07245785  0.32914665     0.05600
O741        O  0.59859962  0.04852164  0.03392328    -0.79600
O742        O  0.98079576  0.49057272  0.13490494    -0.64300
O743        O  0.54098142  0.00538986  0.06315297    -1.10900
C744        C  0.97677111  0.03867983  0.49813143     1.07300
O745        O  0.93861708  0.46572856  0.09692796    -0.77500
O746        O  0.95337944  0.45806529  0.02889078    -0.65100
Ni747      Ni  0.58535107  0.02962697  0.07900206     1.34900
C748        C  0.97355184  0.46061930  0.00597503     0.86000
O749        O  0.52809875  0.47587439  0.12837251    -0.78000
O750        O  0.57933878  0.01222722  0.12548935    -0.88300
C751        C  0.95096236  0.47348118  0.12869318     0.85600
O752        O  0.58173413  0.06703856  0.09804159    -0.66500
O753        O  0.95430288  0.01603664  0.51407237    -0.85800
C754        C  0.56259678  0.06585357  0.12187906     0.86400
C755        C  0.55696330  0.48823790  0.13978419     1.08000
H756        H  0.99713941  0.03857764  0.08176990     0.39800
O757        O  0.99400354  0.01793973  0.07004032    -1.08500
O758        O  0.50017241  0.48675996  0.00434044    -0.65100
Ni759      Ni  0.52430203  0.02756285  0.03394699     1.26300
O760        O  0.53684532  0.03951342  0.12659284    -0.65300
O761        O  0.50620927  0.04883752  0.50622393    -0.77600
C762        C  0.58560268  0.04820567  0.00383977     0.85800
O763        O  0.55590008  0.03833978  0.99907144    -0.64800
Ni764      Ni  0.94950179  0.49212451  0.05593415     1.27400
Ni765      Ni  0.51114979  0.49744505  0.09968452     1.26100
H766        H  0.53698985  0.48445733  0.05128027     0.40400
C767        C  0.92607992  0.05052754  0.42756178    -0.12100
C768        C  0.94890951  0.07675138  0.40954546     0.10100
C769        C  0.98126863  0.09099759  0.42128485    -0.12100
C770        C  0.99055010  0.07896100  0.45028536    -0.12100
C771        C  0.96757986  0.05268630  0.46822802     0.10100
C772        C  0.93525855  0.03875139  0.45654835    -0.12100
H773        H  0.90093116  0.03910088  0.41945994     0.14100
H774        H  0.99942798  0.11125844  0.40793033     0.14100
H775        H  0.51564663  0.09013601  0.45855862     0.14100
H776        H  0.91687784  0.01839242  0.46958012     0.14100
C777        C  0.83598638  0.05010594  0.32020531    -0.12000
C778        C  0.86441887  0.06625733  0.32664693    -0.13500
C779        C  0.96868130  0.16339629  0.32910181    -0.12000
C780        C  0.98485163  0.19202545  0.32324184    -0.13500
C781        C  0.55279904  0.43266911  0.21317676    -0.12100
C782        C  0.58411779  0.44984841  0.22868236     0.10100
C783        C  0.60552573  0.48026079  0.21577880    -0.12100
C784        C  0.59636848  0.99268329  0.18740113    -0.12100
C785        C  0.56542277  0.47522583  0.17116141     0.10400
C786        C  0.54349446  0.44531846  0.18470592    -0.12100
H787        H  0.53567931  0.40922050  0.22256692     0.14100
H788        H  0.62979266  0.99431764  0.22707902     0.14100
H789        H  0.61378501  0.01597355  0.17795071     0.14100
H790        H  0.51943349  0.43136744  0.17281780     0.14100
C791        C  0.67147922  0.45696704  0.30394108    -0.12000
C792        C  0.70009509  0.47322142  0.30887592    -0.13500
C793        C  0.56701660  0.35997903  0.30398920    -0.12000
C794        C  0.55093393  0.33134075  0.31000504    -0.13500
C795        C  0.54832468  0.09654642  0.16913841    -0.12100
C796        C  0.57136089  0.09504094  0.14725898     0.10100
C797        C  0.60340107  0.11950185  0.15304821    -0.12100
C798        C  0.61244547  0.14385765  0.18133348    -0.12100
C799        C  0.58957244  0.14458132  0.20401449     0.10100
C800        C  0.55730928  0.12122905  0.19705308    -0.12100
H801        H  0.52342815  0.07801601  0.16536264     0.14100
H802        H  0.62172229  0.11889845  0.13682999     0.14100
H803        H  0.63746530  0.16180706  0.18583708     0.14100
H804        H  0.53917238  0.12120070  0.21407290     0.14100
C805        C  0.55113724  0.22508691  0.30096321    -0.12000
C806        C  0.56741426  0.21258755  0.29195844    -0.13500
C807        C  0.69974497  0.23059144  0.30211503    -0.12000
C808        C  0.67176948  0.21849980  0.29320996    -0.13500
C809        C  0.65118321  0.06047192  0.44178012    -0.12100
C810        C  0.64810827  0.08024288  0.41640334     0.10100
C811        C  0.62397249  0.08949958  0.41973645    -0.12100
C812        C  0.60290194  0.07853027  0.44764256    -0.12100
C813        C  0.60643588  0.05913580  0.47324285     0.10100
C814        C  0.63093319  0.05041665  0.97014732    -0.12100
H815        H  0.66976356  0.05318941  0.94012914     0.14100
H816        H  0.62112882  0.10474894  0.40049373     0.14100
H817        H  0.58432995  0.08571268  0.44966520     0.14100
H818        H  0.63412559  0.03544260  0.98949593     0.14100
C819        C  0.71607966  0.16501780  0.33823251    -0.12000
C820        C  0.72985422  0.19346490  0.33060826    -0.13500
C821        C  0.73112034  0.04476148  0.32813210    -0.12000
C822        C  0.71778935  0.06071405  0.33632026    -0.13500
C823        C  0.93612035  0.48274651  0.19020103    -0.12100
C824        C  0.92999854  0.46186577  0.15893472     0.10100
C825        C  0.90289172  0.43050695  0.15618193    -0.12100
C826        C  0.88235859  0.42007030  0.18437909    -0.12100
C827        C  0.88800166  0.44129188  0.21519814     0.10100
C828        C  0.91495049  0.47275408  0.21787187    -0.12100
H829        H  0.95673149  0.50717740  0.19271874     0.14100
H830        H  0.89767800  0.41406538  0.13226216     0.14100
H831        H  0.86152672  0.39580985  0.18168581     0.14100
H832        H  0.91966157  0.48949230  0.24142600     0.14100
C833        C  0.80516246  0.47874845  0.30089494    -0.12000
C834        C  0.81866122  0.46276442  0.29369960    -0.13500
C835        C  0.80424052  0.32854664  0.29948799    -0.12000
C836        C  0.81727960  0.35679975  0.29122949    -0.13500
C837        C  0.92373604  0.38332676  0.44541342    -0.12100
C838        C  0.94640224  0.38272687  0.42241280     0.10100
C839        C  0.97860099  0.40672296  0.42850333    -0.12100
C840        C  0.98772576  0.43163114  0.45629247    -0.12100
C841        C  0.96488382  0.43259810  0.47888769     0.10100
C842        C  0.93290030  0.40777996  0.47350689    -0.12100
H843        H  0.89880553  0.36490791  0.44161481     0.14100
H844        H  0.99655994  0.40680233  0.41115268     0.14100
H845        H  0.01254898  0.45040700  0.45973516     0.14100
H846        H  0.91466638  0.40782318  0.49030529     0.14100
C847        C  0.83488344  0.29176772  0.32841132    -0.12000
C848        C  0.86301648  0.30422761  0.33692644    -0.13500
C849        C  0.98433531  0.29807124  0.33187331    -0.12000
C850        C  0.96773439  0.31046012  0.33989862    -0.13500
C851        C  0.93617413  0.35734393  0.89202501     0.81500
N852        N  0.90571987  0.34332808  0.87779319    -0.76800
C853        C  0.89574726  0.31945809  0.85050289     0.84000
N854        N  0.91616837  0.30899976  0.83762085    -0.76700
C855        C  0.94670265  0.32295641  0.85168248     0.84100
N856        N  0.95664132  0.34706745  0.87881526    -0.78500
C857        C  0.86519099  0.43100352  0.74382008     0.81500
N858        N  0.85292844  0.39988975  0.75496967    -0.76800
C859        C  0.83088096  0.39000965  0.78026471     0.84000
N860        N  0.82027618  0.41090067  0.79362159    -0.76700
C861        C  0.83226888  0.44191553  0.78237064     0.84100
N862        N  0.85476146  0.45194843  0.75757850    -0.78500
C863        C  0.67032658  0.09089532  0.88695092     0.81500
N864        N  0.68232439  0.07105123  0.87396887    -0.76800
C865        C  0.70394181  0.08110432  0.84827564     0.84000
N866        N  0.71434442  0.11155290  0.83605273    -0.76700
C867        C  0.70262832  0.13162903  0.84890713     0.84100
N868        N  0.68062793  0.12131075  0.87435229    -0.78500
C869        C  0.80071485  0.27648160  0.82110073     0.03600
C870        C  0.78602115  0.29439812  0.80795575     0.03500
C871        C  0.75271174  0.27886023  0.80242163    -0.17000
C872        C  0.73382247  0.24572833  0.80970060     0.03600
C873        C  0.74841809  0.22772748  0.82274958     0.03500
C874        C  0.78176905  0.24329529  0.82842815    -0.17000
H875        H  0.79303525  0.22953208  0.83869363     0.05600
H876        H  0.74141606  0.29258820  0.79211786     0.05600
C877        C  0.59959960  0.16873177  0.73555856     0.81500
N878        N  0.62983202  0.18190135  0.75021044    -0.76800
C879        C  0.63935732  0.20404560  0.77913051     0.84000
N880        N  0.61876487  0.21363954  0.79330474    -0.76700
C881        C  0.58845553  0.20053386  0.77886078     0.84100
N882        N  0.57890841  0.17811504  0.75006471    -0.78500
C883        C  0.59543111  0.43590400  0.75690671     0.81500
N884        N  0.62644766  0.45241687  0.76930798    -0.76800
C885        C  0.63799452  0.43952637  0.79355265     0.84000
N886        N  0.61845161  0.40948926  0.80554734    -0.76700
C887        C  0.58724645  0.39280973  0.79352975     0.84100
N888        N  0.57586872  0.40588729  0.76903838    -0.78500
C889        C  0.93855211  0.08923377  0.87918838     0.81500
N890        N  0.95862946  0.11868396  0.86632854    -0.76800
C891        C  0.94824460  0.13076730  0.83981151     0.84000
N892        N  0.91753231  0.11358923  0.82628151    -0.76700
C893        C  0.89749375  0.08401073  0.83886603     0.84100
N894        N  0.90799347  0.07212985  0.86532923    -0.78500
C895        C  0.53384247  0.29616338  0.81416580     0.03600
C896        C  0.50186275  0.28018951  0.82401378     0.03500
C897        C  0.98628236  0.24585482  0.82664641    -0.17000
C898        C  0.50201687  0.22718064  0.81940923     0.03600
C899        C  0.53395168  0.24311488  0.80952444     0.03500
C900        C  0.54958440  0.27746767  0.80700321    -0.17000
H901        H  0.57412194  0.28971678  0.79912460     0.05600
H902        H  0.96171662  0.23356659  0.83443456     0.05600
C903        C  0.78683079  0.49593328  0.80760546     0.03600
C904        C  0.80165965  0.03041227  0.81604393     0.03500
C905        C  0.78282896  0.04594836  0.82228873    -0.17000
C906        C  0.74938523  0.02758939  0.82034511     0.03600
C907        C  0.73451391  0.99308582  0.81191575     0.03500
C908        C  0.75337650  0.47758532  0.80538079    -0.17000
H909        H  0.74194994  0.45107929  0.79864918     0.05600
H910        H  0.79427974  0.07243512  0.82916896     0.05600
O911        O  0.59856970  0.04855173  0.53388629    -0.79600
O912        O  0.98083142  0.49057047  0.63492730    -0.64300
O913        O  0.54096038  0.00539043  0.56311712    -1.10900
C914        C  0.97680829  0.03864908  0.99810883     1.07300
O915        O  0.93864159  0.46572839  0.59696679    -0.77500
O916        O  0.95337115  0.45807010  0.52891284    -0.65100
Ni917      Ni  0.58533363  0.02962356  0.57895093     1.34900
C918        C  0.97354047  0.46061805  0.50599537     0.86000
O919        O  0.52812981  0.47587038  0.62836089    -0.78000
O920        O  0.57933461  0.01219191  0.62541960    -0.88300
C921        C  0.95099675  0.47347840  0.62872784     0.85600
O922        O  0.58172471  0.06702609  0.59803633    -0.66500
O923        O  0.95433838  0.01599443  0.01403632    -0.85800
C924        C  0.56258917  0.06583321  0.62187897     0.86400
C925        C  0.55700020  0.48821609  0.63974452     1.08000
H926        H  0.99712998  0.03857752  0.58177426     0.39800
O927        O  0.99398552  0.01793976  0.57003556    -1.08500
O928        O  0.50016303  0.48675453  0.50435620    -0.65100
Ni929      Ni  0.52427230  0.02756680  0.53392817     1.26300
O930        O  0.53683506  0.03949319  0.62658324    -0.65300
O931        O  0.50624563  0.04882944  0.00622843    -0.77600
C932        C  0.58556592  0.04822755  0.50380450     0.85800
O933        O  0.55585997  0.03834487  0.49903924    -0.64800
Ni934      Ni  0.94951095  0.49213078  0.55597735     1.27400
Ni935      Ni  0.51117354  0.49744456  0.59969051     1.26100
H936        H  0.53699986  0.48446014  0.55126939     0.40400
C937        C  0.92612747  0.05044797  0.92748837    -0.12100
C938        C  0.94895116  0.07671108  0.90951308     0.10100
C939        C  0.98130482  0.09098923  0.92128634    -0.12100
C940        C  0.99058579  0.07895130  0.95028586    -0.12100
C941        C  0.96761993  0.05264295  0.96819239     0.10100
C942        C  0.93530524  0.03866984  0.95647262    -0.12100
H943        H  0.90098293  0.03899289  0.91935843     0.14100
H944        H  0.99945994  0.11128018  0.90796353     0.14100
H945        H  0.51567769  0.09015555  0.95859082     0.14100
H946        H  0.91692885  0.01828238  0.96947420     0.14100
C947        C  0.83601496  0.05007975  0.82021664    -0.12000
C948        C  0.86444805  0.06623644  0.82665182    -0.13500
C949        C  0.96871029  0.16338107  0.82911073    -0.12000
C950        C  0.98488134  0.19201200  0.82325909    -0.13500
C951        C  0.55283254  0.43264896  0.71314166    -0.12100
C952        C  0.58416408  0.44980322  0.72861474     0.10100
C953        C  0.60558900  0.48019099  0.71567585    -0.12100
C954        C  0.59638911  0.99263376  0.68730120    -0.12100
C955        C  0.56546832  0.47519058  0.67110382     0.10400
C956        C  0.54352762  0.44530359  0.68467607    -0.12100
H957        H  0.53570017  0.40921932  0.72255887     0.14100
H958        H  0.62982723  0.99426659  0.72695985     0.14100
H959        H  0.61380620  0.01591769  0.67783887     0.14100
H960        H  0.51945373  0.43137501  0.67281809     0.14100
C961        C  0.67150170  0.45694142  0.80393208    -0.12000
C962        C  0.70011690  0.47319906  0.80887288    -0.13500
C963        C  0.56703257  0.35995956  0.80397732    -0.12000
C964        C  0.55094826  0.33132426  0.81000387    -0.13500
C965        C  0.54832264  0.09652341  0.66914867    -0.12100
C966        C  0.57135798  0.09501312  0.64727170     0.10100
C967        C  0.60340102  0.11946412  0.65306971    -0.12100
C968        C  0.61244844  0.14381605  0.68135914    -0.12100
C969        C  0.58957597  0.14454624  0.70403622     0.10100
C970        C  0.55731053  0.12120313  0.69706758    -0.12100
H971        H  0.52342397  0.07800043  0.66536577     0.14100
H972        H  0.62172154  0.11885637  0.63685366     0.14100
H973        H  0.63746998  0.16175814  0.68586791     0.14100
H974        H  0.53917385  0.12118025  0.71408391     0.14100
C975        C  0.55116308  0.22507568  0.80097694    -0.12000
C976        C  0.56743479  0.21256974  0.79197424    -0.13500
C977        C  0.69975471  0.23056110  0.80213849    -0.12000
C978        C  0.67177960  0.21846318  0.79322923    -0.13500
C979        C  0.65123123  0.06045659  0.94182480    -0.12100
C980        C  0.64814547  0.08021333  0.91643750     0.10100
C981        C  0.62399907  0.08945507  0.91975933    -0.12100
C982        C  0.60292997  0.07848734  0.94766599    -0.12100
C983        C  0.60647494  0.05910935  0.97327893     0.10100
C984        C  0.63088446  0.05043029  0.47010100    -0.12100
H985        H  0.66970740  0.05319353  0.44007723     0.14100
H986        H  0.62114649  0.10469229  0.90050754     0.14100
H987        H  0.58434998  0.08565894  0.94967914     0.14100
H988        H  0.63406846  0.03544431  0.48944073     0.14100
C989        C  0.71609834  0.16499372  0.83826331    -0.12000
C990        C  0.72986719  0.19344100  0.83063901    -0.13500
C991        C  0.73115644  0.04474739  0.82814657    -0.12000
C992        C  0.71782787  0.06070015  0.83634222    -0.13500
C993        C  0.93616487  0.48273981  0.69024419    -0.12100
C994        C  0.93004338  0.46185817  0.65897842     0.10100
C995        C  0.90294498  0.43049304  0.65623424    -0.12100
C996        C  0.88241820  0.42005234  0.68443711    -0.12100
C997        C  0.88805816  0.44127546  0.71525411     0.10100
C998        C  0.91500055  0.47274296  0.71792089    -0.12100
H999        H  0.95676960  0.50717534  0.69275592     0.14100
H1000       H  0.89773171  0.41405044  0.63231543     0.14100
H1001       H  0.86159099  0.39578839  0.68174793     0.14100
H1002       H  0.91970902  0.48948347  0.74147234     0.14100
C1003       C  0.80518703  0.47873277  0.80088577    -0.12000
C1004       C  0.81868780  0.46274801  0.79370394    -0.13500
C1005       C  0.80425032  0.32852642  0.79952368    -0.12000
C1006       C  0.81729865  0.35678030  0.79126609    -0.13500
C1007       C  0.92375733  0.38331133  0.94541173    -0.12100
C1008       C  0.94641960  0.38272505  0.92239618     0.10100
C1009       C  0.97861402  0.40673916  0.92846582    -0.12100
C1010       C  0.98773788  0.43165023  0.95625200    -0.12100
C1011       C  0.96489968  0.43260147  0.97886506     0.10100
C1012       C  0.93292098  0.40776694  0.97350209    -0.12100
H1013       H  0.89883048  0.36487844  0.94162848     0.14100
H1014       H  0.99656918  0.40682904  0.91110187     0.14100
H1015       H  0.01255696  0.45043948  0.95967916     0.14100
H1016       H  0.91468940  0.40779722  0.99031374     0.14100
C1017       C  0.83489254  0.29174311  0.82843372    -0.12000
C1018       C  0.86302702  0.30420063  0.83693903    -0.13500
C1019       C  0.98435320  0.29805013  0.83189398    -0.12000
C1020       C  0.96774675  0.31043336  0.83991581    -0.13500
C1021       C  0.93614617  0.85735462  0.39202262     0.81500
N1022       N  0.90569412  0.84333938  0.37778378    -0.76800
C1023       C  0.89572772  0.81947445  0.35048860     0.84000
N1024       N  0.91615226  0.80902042  0.33760877    -0.76700
C1025       C  0.94668394  0.82297533  0.35167693     0.84100
N1026       N  0.95661719  0.84708183  0.37881474    -0.78500
C1027       C  0.86514037  0.93102885  0.24381392     0.81500
N1028       N  0.85288833  0.89991714  0.25496582    -0.76800
C1029       C  0.83085126  0.89003508  0.28027154     0.84000
N1030       N  0.82024551  0.91092245  0.29363809    -0.76700
C1031       C  0.83222797  0.94193603  0.28238505     0.84100
N1032       N  0.85471080  0.95197073  0.25758155    -0.78500
C1033       C  0.67029620  0.59090001  0.38688410     0.81500
N1034       N  0.68228907  0.57105262  0.37389898    -0.76800
C1035       C  0.70390603  0.58110365  0.34820559     0.84000
N1036       N  0.71431358  0.61155404  0.33598537    -0.76700
C1037       C  0.70260199  0.63163361  0.34884232     0.84100
N1038       N  0.68060220  0.62131727  0.37428840    -0.78500
C1039       C  0.80070096  0.77649082  0.32105730     0.03600
C1040       C  0.78600883  0.79441127  0.30791949     0.03500
C1041       C  0.75270063  0.77887343  0.30237667    -0.17000
C1042       C  0.73380978  0.74573984  0.30964704     0.03600
C1043       C  0.74840306  0.72773458  0.32269040     0.03500
C1044       C  0.78175399  0.74330078  0.32837149    -0.17000
H1045       H  0.79301876  0.72953491  0.33863330     0.05600
H1046       H  0.74140642  0.79260491  0.29207858     0.05600
C1047       C  0.59959185  0.66876515  0.23550810     0.81500
N1048       N  0.62982299  0.68193554  0.25016261    -0.76800
C1049       C  0.63934624  0.70407944  0.27908213     0.84000
N1050       N  0.61875205  0.71367207  0.29325499    -0.76700
C1051       C  0.58844290  0.70056512  0.27880862     0.84100
N1052       N  0.57889832  0.67814637  0.25001219    -0.78500
C1053       C  0.59539312  0.93594205  0.25698193     0.81500
N1054       N  0.62641002  0.95245397  0.26938150    -0.76800
C1055       C  0.63796036  0.93955684  0.29361429     0.84000
N1056       N  0.61842108  0.90951331  0.30559743    -0.76700
C1057       C  0.58721557  0.89283449  0.29358118     0.84100
N1058       N  0.57583420  0.90591914  0.26910234    -0.78500
C1059       C  0.93853812  0.58926360  0.37921458     0.81500
N1060       N  0.95861598  0.61870563  0.36633748    -0.76800
C1061       C  0.94822797  0.63077889  0.33981208     0.84000
N1062       N  0.91751347  0.61359826  0.32629061    -0.76700
C1063       C  0.89747486  0.58402835  0.33889168     0.84100
N1064       N  0.90797668  0.57215761  0.36536358    -0.78500
C1065       C  0.53381425  0.79617225  0.31415873     0.03600
C1066       C  0.50183168  0.78019471  0.32399546     0.03500
C1067       C  0.98624894  0.74585720  0.32661143    -0.17000
C1068       C  0.50198590  0.72718493  0.31937159     0.03600
C1069       C  0.53392271  0.74312351  0.30949214     0.03500
C1070       C  0.54955635  0.77747838  0.30698667    -0.17000
H1071       H  0.57409599  0.78973132  0.29911540     0.05600
H1072       H  0.96168174  0.73356631  0.33439436     0.05600
C1073       C  0.78679258  0.99595502  0.30763113     0.03600
C1074       C  0.80164342  0.53042862  0.31603944     0.03500
C1075       C  0.78280610  0.54595826  0.32227654    -0.17000
C1076       C  0.74936274  0.52759423  0.32031522     0.03600
C1077       C  0.73449925  0.49309127  0.31188404     0.03500
C1078       C  0.75333845  0.97761010  0.30542197    -0.17000
H1079       H  0.74190831  0.95110173  0.29870522     0.05600
H1080       H  0.79425108  0.57244370  0.32916361     0.05600
O1081       O  0.59860593  0.54852131  0.03390193    -0.79600
O1082       O  0.98079262  0.99058145  0.13493834    -0.64300
O1083       O  0.54098646  0.50539064  0.06312315    -1.10900
C1084       C  0.97680985  0.53868311  0.49813133     1.07300
O1085       O  0.93861117  0.96572633  0.09696591    -0.77500
O1086       O  0.95338596  0.95804357  0.02893732    -0.65100
Ni1087     Ni  0.58535478  0.52962289  0.07897769     1.34900
C1088       C  0.97355397  0.96060258  0.00601375     0.86000
O1089       O  0.52809844  0.97588660  0.12841027    -0.78000
O1090       O  0.57933880  0.51221979  0.12546378    -0.88300
C1091       C  0.95095882  0.97348646  0.12873021     0.85600
O1092       O  0.58173771  0.56703318  0.09801955    -0.66500
O1093       O  0.95434238  0.51604437  0.51407812    -0.85800
C1094       C  0.56260044  0.56584583  0.12185802     0.86400
C1095       C  0.55696468  0.98824753  0.13981422     1.08000
H1096       H  0.99715309  0.53858360  0.08174906     0.39800
O1097       O  0.99401245  0.51794564  0.07001499    -1.08500
O1098       O  0.50016709  0.98674977  0.00436878    -0.65100
Ni1099     Ni  0.52431051  0.52757028  0.03392145     1.26300
O1100       O  0.53684953  0.53950469  0.12657053    -0.65300
O1101       O  0.50624822  0.54883764  0.50621860    -0.77600
C1102       C  0.58561148  0.54821138  0.00381908     0.85800
O1103       O  0.55590970  0.53834873  0.99904824    -0.64800
Ni1104     Ni  0.94949436  0.99210533  0.05595776     1.27400
Ni1105     Ni  0.51114579  0.99744899  0.09971618     1.26100
H1106       H  0.53698505  0.98445513  0.05131416     0.40400
C1107       C  0.92611220  0.55053312  0.42757246    -0.12100
C1108       C  0.94893990  0.57675150  0.40954786     0.10100
C1109       C  0.98130120  0.59099244  0.42127658    -0.12100
C1110       C  0.99058590  0.57895662  0.45027589    -0.12100
C1111       C  0.96761689  0.55268821  0.46822756     0.10100
C1112       C  0.93529403  0.53875806  0.45655721    -0.12100
H1113       H  0.90096189  0.53911009  0.41947913     0.14100
H1114       H  0.99945928  0.61124861  0.40791521     0.14100
H1115       H  0.51568372  0.59012744  0.45854153     0.14100
H1116       H  0.91691411  0.51840384  0.46959546     0.14100
C1117       C  0.83599717  0.55009818  0.32023366    -0.12000
C1118       C  0.86442883  0.56625250  0.32667962    -0.13500
C1119       C  0.96869105  0.66338749  0.32909359    -0.12000
C1120       C  0.98485537  0.69201624  0.32322728    -0.13500
C1121       C  0.55279104  0.93269399  0.21322798    -0.12100
C1122       C  0.58412353  0.94984658  0.22869832     0.10100
C1123       C  0.60554800  0.98023503  0.21576040    -0.12100
C1124       C  0.59634657  0.49270493  0.18741483    -0.12100
C1125       C  0.56542817  0.97523218  0.17118570     0.10400
C1126       C  0.54348633  0.94534768  0.18476148    -0.12100
H1127       H  0.53565858  0.90926464  0.22264566     0.14100
H1128       H  0.62975812  0.49436529  0.22712752     0.14100
H1129       H  0.61375058  0.51601436  0.17799042     0.14100
H1130       H  0.51941263  0.93141836  0.17290321     0.14100
C1131       C  0.67146789  0.95697182  0.30399024    -0.12000
C1132       C  0.70008338  0.97323089  0.30892404    -0.13500
C1133       C  0.56700614  0.85997718  0.30401190    -0.12000
C1134       C  0.55092317  0.83133686  0.31001976    -0.13500
C1135       C  0.54832529  0.59654433  0.16910816    -0.12100
C1136       C  0.57136424  0.59503186  0.14723915     0.10100
C1137       C  0.60340582  0.61948608  0.15303726    -0.12100
C1138       C  0.61244824  0.64384390  0.18131953    -0.12100
C1139       C  0.58957203  0.64457647  0.20398917     0.10100
C1140       C  0.55730806  0.62122962  0.19701998    -0.12100
H1141       H  0.52342773  0.57801834  0.16532528     0.14100
H1142       H  0.62172903  0.61887616  0.13682791     0.14100
H1143       H  0.63746907  0.66178804  0.18582962     0.14100
H1144       H  0.53916882  0.62120770  0.21403132     0.14100
C1145       C  0.55113757  0.72508888  0.30093632    -0.12000
C1146       C  0.56741603  0.71259231  0.29192664    -0.13500
C1147       C  0.69974199  0.73057957  0.30208994    -0.12000
C1148       C  0.67176706  0.71849193  0.29318425    -0.13500
C1149       C  0.65121198  0.56046684  0.44176208    -0.12100
C1150       C  0.64812118  0.58022182  0.41637620     0.10100
C1151       C  0.62397752  0.58946673  0.41970643    -0.12100
C1152       C  0.60291566  0.57850346  0.44762031    -0.12100
C1153       C  0.60646623  0.55912741  0.47323145     0.10100
C1154       C  0.63093584  0.55041230  0.97012549    -0.12100
H1155       H  0.66975896  0.55317215  0.94010320     0.14100
H1156       H  0.62112157  0.60470286  0.40045581     0.14100
H1157       H  0.58433704  0.58567650  0.44964009     0.14100
H1158       H  0.63412116  0.53543081  0.98946994     0.14100
C1159       C  0.71607725  0.66499989  0.33820122    -0.12000
C1160       C  0.72984942  0.69344753  0.33057775    -0.13500
C1161       C  0.73112613  0.54474717  0.32809795    -0.12000
C1162       C  0.71779345  0.56069907  0.33627878    -0.13500
C1163       C  0.93611217  0.98276205  0.19023421    -0.12100
C1164       C  0.92999659  0.96187438  0.15897483     0.10100
C1165       C  0.90289664  0.93051025  0.15623119    -0.12100
C1166       C  0.88236514  0.92007499  0.18443029    -0.12100
C1167       C  0.88800205  0.94130258  0.21524271     0.10100
C1168       C  0.91494339  0.97277058  0.21790684    -0.12100
H1169       H  0.95671749  0.00719708  0.19274503     0.14100
H1170       H  0.89768719  0.91406312  0.13231700     0.14100
H1171       H  0.86153896  0.89581013  0.18174338     0.14100
H1172       H  0.91964982  0.98951410  0.24145504     0.14100
C1173       C  0.80514462  0.97874944  0.30091249    -0.12000
C1174       C  0.81864485  0.96276458  0.29372755    -0.13500
C1175       C  0.80423667  0.82854628  0.29951065    -0.12000
C1176       C  0.81727787  0.85680497  0.29126852    -0.13500
C1177       C  0.92371604  0.88332180  0.44540190    -0.12100
C1178       C  0.94638490  0.88273126  0.42239882     0.10100
C1179       C  0.97858015  0.90673753  0.42848531    -0.12100
C1180       C  0.98769916  0.93164460  0.45627485    -0.12100
C1181       C  0.96485514  0.93260065  0.47887477     0.10100
C1182       C  0.93287476  0.90777401  0.47349599    -0.12100
H1183       H  0.89878799  0.86489520  0.44160579     0.14100
H1184       H  0.99654061  0.90682466  0.41113198     0.14100
H1185       H  0.01251986  0.95042751  0.45971496     0.14100
H1186       H  0.91463908  0.90780865  0.49029754     0.14100
C1187       C  0.83487705  0.79175403  0.32840232    -0.12000
C1188       C  0.86300980  0.80421543  0.33691731    -0.13500
C1189       C  0.98432544  0.79805766  0.33188640    -0.12000
C1190       C  0.96772723  0.81044975  0.33991322    -0.13500
C1191       C  0.93618443  0.85733207  0.89205912     0.81500
N1192       N  0.90572983  0.84331622  0.87782785    -0.76800
C1193       C  0.89575913  0.81945306  0.85053060     0.84000
N1194       N  0.91618258  0.80900212  0.83763982    -0.76700
C1195       C  0.94671687  0.82295799  0.85170037     0.84100
N1196       N  0.95665397  0.84706205  0.87884098    -0.78500
C1197       C  0.86514656  0.93099174  0.74381073     0.81500
N1198       N  0.85290141  0.89988276  0.75496901    -0.76800
C1199       C  0.83087038  0.89000377  0.78028169     0.84000
N1200       N  0.82026409  0.91089070  0.79364802    -0.76700
C1201       C  0.83223972  0.94190097  0.78238785     0.84100
N1202       N  0.85471653  0.95193303  0.75757806    -0.78500
C1203       C  0.67033350  0.59088846  0.88693159     0.81500
N1204       N  0.68232334  0.57103777  0.87394762    -0.76800
C1205       C  0.70393848  0.58108506  0.84825191     0.84000
N1206       N  0.71434676  0.61153438  0.83602847    -0.76700
C1207       C  0.70263784  0.63161647  0.84888473     0.84100
N1208       N  0.68064003  0.62130403  0.87433234    -0.78500
C1209       C  0.80072973  0.77647494  0.82111073     0.03600
C1210       C  0.78603709  0.79439391  0.80797012     0.03500
C1211       C  0.75272827  0.77885688  0.80243153    -0.17000
C1212       C  0.73383790  0.74572324  0.80970223     0.03600
C1213       C  0.74843270  0.72771843  0.82274261     0.03500
C1214       C  0.78178328  0.74328544  0.82842582    -0.17000
H1215       H  0.79304839  0.72951961  0.83868697     0.05600
H1216       H  0.74143372  0.79258774  0.79213257     0.05600
C1217       C  0.59962462  0.66873321  0.73555368     0.81500
N1218       N  0.62985295  0.68190094  0.75021635    -0.76800
C1219       C  0.63937452  0.70405174  0.77912986     0.84000
N1220       N  0.61878176  0.71365389  0.79328736    -0.76700
C1221       C  0.58847558  0.70054899  0.77883273     0.84100
N1222       N  0.57893283  0.67812397  0.75004282    -0.78500
C1223       C  0.59542266  0.93591842  0.75691139     0.81500
N1224       N  0.62643825  0.95243805  0.76931763    -0.76800
C1225       C  0.63798673  0.93955214  0.79356701     0.84000
N1226       N  0.61844708  0.90951311  0.80555958    -0.76700
C1227       C  0.58724377  0.89282705  0.79353661     0.84100
N1228       N  0.57586421  0.90590019  0.76904220    -0.78500
C1229       C  0.93856525  0.58925004  0.87915980     0.81500
N1230       N  0.95864237  0.61869485  0.86628869    -0.76800
C1231       C  0.94825339  0.63077377  0.83977038     0.84000
N1232       N  0.91753777  0.61359631  0.82625041    -0.76700
C1233       C  0.89749976  0.58402307  0.83884594     0.84100
N1234       N  0.90800337  0.57214701  0.86531031    -0.78500
C1235       C  0.53384849  0.79617066  0.81413810     0.03600
C1236       C  0.50186896  0.78019364  0.82398536     0.03500
C1237       C  0.98628729  0.74585683  0.82660305    -0.17000
C1238       C  0.50202207  0.72718420  0.81935605     0.03600
C1239       C  0.53395768  0.74312239  0.80947325     0.03500
C1240       C  0.54958996  0.77747663  0.80696281    -0.17000
H1241       H  0.57412807  0.78972890  0.79908654     0.05600
H1242       H  0.96172171  0.73356637  0.83439153     0.05600
C1243       C  0.78681624  0.99592975  0.80764187     0.03600
C1244       C  0.80166537  0.53041333  0.81602157     0.03500
C1245       C  0.78282661  0.54593945  0.82227071    -0.17000
C1246       C  0.74938344  0.52757261  0.82032035     0.03600
C1247       C  0.73452110  0.49307074  0.81188132     0.03500
C1248       C  0.75336133  0.97758984  0.80542373    -0.17000
H1249       H  0.74192798  0.95108232  0.79870038     0.05600
H1250       H  0.79427065  0.57242453  0.82915998     0.05600
O1251       O  0.59860843  0.54855637  0.53388032    -0.79600
O1252       O  0.98078520  0.99055880  0.63492395    -0.64300
O1253       O  0.54099927  0.50539360  0.56311454    -1.10900
C1254       C  0.97682191  0.53867686  0.99809296     1.07300
O1255       O  0.93859998  0.96571638  0.59695601    -0.77500
O1256       O  0.95333498  0.95806374  0.52890308    -0.65100
Ni1257     Ni  0.58537380  0.52962554  0.57894518     1.34900
C1258       C  0.97350676  0.96061699  0.50598662     0.86000
O1259       O  0.52809186  0.97586633  0.62836736    -0.78000
O1260       O  0.57937479  0.51219028  0.62541282    -0.88300
C1261       C  0.95095069  0.97346725  0.62871891     0.85600
O1262       O  0.58176927  0.56702936  0.59803565    -0.66500
O1263       O  0.95434961  0.51603121  0.01402699    -0.85800
C1264       C  0.56263316  0.56583683  0.62187732     0.86400
C1265       C  0.55696312  0.98821510  0.63975095     1.08000
H1266       H  0.99717544  0.53858772  0.58177406     0.39800
O1267       O  0.99402781  0.51794836  0.57003645    -1.08500
O1268       O  0.50012853  0.98675582  0.50435261    -0.65100
Ni1269     Ni  0.52431098  0.52756824  0.53392526     1.26300
O1270       O  0.53687863  0.53949787  0.62658091    -0.65300
O1271       O  0.50625843  0.54884308  0.00620368    -0.77600
C1272       C  0.58560111  0.54822371  0.50379737     0.85800
O1273       O  0.55589443  0.53833733  0.49903382    -0.64800
Ni1274     Ni  0.94947014  0.99212083  0.55596964     1.27400
Ni1275     Ni  0.51113264  0.99743788  0.59969211     1.26100
H1276       H  0.53696224  0.98445796  0.55127044     0.40400
C1277       C  0.92613886  0.55050093  0.92749631    -0.12100
C1278       C  0.94896636  0.57673366  0.90948899     0.10100
C1279       C  0.98132467  0.59098732  0.92123512    -0.12100
C1280       C  0.99060593  0.57895358  0.95023917    -0.12100
C1281       C  0.96763583  0.55267460  0.96817725     0.10100
C1282       C  0.93531686  0.53872788  0.95648478    -0.12100
H1283       H  0.90099090  0.53906619  0.91938843     0.14100
H1284       H  0.99948261  0.61125418  0.90788636     0.14100
H1285       H  0.51570115  0.59013612  0.95852119     0.14100
H1286       H  0.91693641  0.51836378  0.96951053     0.14100
C1287       C  0.83601962  0.55008775  0.82020216    -0.12000
C1288       C  0.86445238  0.56624748  0.82663812    -0.13500
C1289       C  0.96871826  0.66338436  0.82905930    -0.12000
C1290       C  0.98488821  0.69201456  0.82320295    -0.13500
C1291       C  0.55281201  0.93266294  0.71316193    -0.12100
C1292       C  0.58415116  0.94981155  0.72861583     0.10100
C1293       C  0.60557680  0.98018852  0.71565704    -0.12100
C1294       C  0.59640940  0.49263985  0.68731728    -0.12100
C1295       C  0.56543892  0.97519154  0.67110847     0.10400
C1296       C  0.54349899  0.94531374  0.68469833    -0.12100
H1297       H  0.53567867  0.90924134  0.72259449     0.14100
H1298       H  0.62983308  0.49427448  0.72699589     0.14100
H1299       H  0.61382505  0.51593169  0.67786916     0.14100
H1300       H  0.51941868  0.93138997  0.67285693     0.14100
C1301       C  0.67149319  0.95697131  0.80395268    -0.12000
C1302       C  0.70010836  0.97322378  0.80890181    -0.13500
C1303       C  0.56703578  0.85997300  0.80397717    -0.12000
C1304       C  0.55095472  0.83133428  0.80999242    -0.13500
C1305       C  0.54835911  0.59653140  0.66913252    -0.12100
C1306       C  0.57140013  0.59501556  0.64726984     0.10100
C1307       C  0.60344448  0.61945808  0.65308319    -0.12100
C1308       C  0.61248673  0.64380831  0.68137319    -0.12100
C1309       C  0.58960778  0.64454533  0.70403484     0.10100
C1310       C  0.55734203  0.62120961  0.69705189    -0.12100
H1311       H  0.52345927  0.57801423  0.66533736     0.14100
H1312       H  0.62176890  0.61884474  0.63687877     0.14100
H1313       H  0.63750893  0.66174443  0.68589369     0.14100
H1314       H  0.53920060  0.62119202  0.71405652     0.14100
C1315       C  0.55117373  0.72508786  0.80092599    -0.12000
C1316       C  0.56745146  0.71258657  0.79193142    -0.13500
C1317       C  0.69976977  0.73056033  0.80214375    -0.12000
C1318       C  0.67179468  0.71846769  0.79323595    -0.13500
C1319       C  0.65123354  0.56044899  0.94180305    -0.12100
C1320       C  0.64815526  0.58021331  0.91642032     0.10100
C1321       C  0.62401890  0.58946901  0.91974844    -0.12100
C1322       C  0.60295002  0.57850484  0.94765523    -0.12100
C1323       C  0.60648572  0.55911632  0.97326136     0.10100
C1324       C  0.63092192  0.55043202  0.47009150    -0.12100
H1325       H  0.66974244  0.55319734  0.44006014     0.14100
H1326       H  0.62117325  0.60471351  0.90050087     0.14100
H1327       H  0.58437691  0.58568603  0.94967310     0.14100
H1328       H  0.63411783  0.53545903  0.48943880     0.14100
C1329       C  0.71611222  0.66498111  0.83824111    -0.12000
C1330       C  0.72988142  0.69342965  0.83062191    -0.13500
C1331       C  0.73114694  0.54472207  0.82812326    -0.12000
C1332       C  0.71781840  0.56067501  0.83631857    -0.13500
C1333       C  0.93612338  0.98272093  0.69023974    -0.12100
C1334       C  0.92999187  0.96184779  0.65896485     0.10100
C1335       C  0.90287941  0.93049283  0.65620786    -0.12100
C1336       C  0.88235102  0.92005211  0.68440916    -0.12100
C1337       C  0.88800470  0.94126607  0.71523735     0.10100
C1338       C  0.91495839  0.97272476  0.71791525    -0.12100
H1339       H  0.95673826  0.00714912  0.69276112     0.14100
H1340       H  0.89765749  0.91405732  0.63228135     0.14100
H1341       H  0.86151454  0.89579514  0.68171242     0.14100
H1342       H  0.91967664  0.98945751  0.74147607     0.14100
C1343       C  0.80516381  0.97871971  0.80092231    -0.12000
C1344       C  0.81865925  0.96273071  0.79373436    -0.13500
C1345       C  0.80426557  0.82852433  0.79954698    -0.12000
C1346       C  0.81730502  0.85677832  0.79129040    -0.13500
C1347       C  0.92376078  0.88330734  0.94543474    -0.12100
C1348       C  0.94642832  0.88270974  0.92243479     0.10100
C1349       C  0.97862541  0.90671216  0.92852160    -0.12100
C1350       C  0.98774695  0.93162277  0.95630837    -0.12100
C1351       C  0.96490362  0.93258444  0.97890533     0.10100
C1352       C  0.93292182  0.90776204  0.97352555    -0.12100
H1353       H  0.89883134  0.86488492  0.94163813     0.14100
H1354       H  0.99658500  0.90679406  0.91117025     0.14100
H1355       H  0.01256846  0.95040349  0.95974910     0.14100
H1356       H  0.91468634  0.90780250  0.99032326     0.14100
C1357       C  0.83490621  0.79173746  0.82845343    -0.12000
C1358       C  0.86303950  0.80419623  0.83696514    -0.13500
C1359       C  0.98436327  0.79805482  0.83188493    -0.12000
C1360       C  0.96776156  0.81043976  0.83992214    -0.13500
loop_ 
_geom_bond_atom_site_label_1 
_geom_bond_atom_site_label_2 
_geom_bond_distance 
_geom_bond_site_symmetry_2 
_ccdc_geom_bond_type 
C1            N2   1.359       .  A
C1            N6   1.359       .  A
C1          C158   1.478       .  S
N2            C3   1.355       .  A
C3            N4   1.358       .  A
C3          C168   1.438       .  S
N4            C5   1.360       .  A
C5            N6   1.358       .  A
C5          C170   1.437       .  S
C7            N8   1.360       .  A
C7           N12   1.359       .  A
C7          C147   1.473       .  S
N8            C9   1.357       .  A
C9           N10   1.358       .  A
C9          C156   1.438       .  S
N10          C11   1.358       .  A
C11          N12   1.357       .  A
C11         C154   1.438       .  S
C13          N14   1.361       .  A
C13          N18   1.362       .  A
C13         C130   1.481       .  S
N14          C15   1.356       .  A
C15          N16   1.357       .  A
C15         C142   1.439       .  S
N16          C17   1.358       .  A
C17          N18   1.360       .  A
C17         C139   1.439       .  S
C19         C167   1.447       .  S
C19          C20   1.410       .  A
C19          C24   1.404       .  A
C20         C155   1.447       .  S
C20          C21   1.401       .  A
C21          C22   1.401       .  A
C21          H26   1.085       .  S
C22         C127   1.444       .  S
C22          C23   1.409       .  A
C23         C140   1.448       .  S
C23          C24   1.404       .  A
C24          H25   1.085       .  S
C27          N28   1.358       .  A
C27          N32   1.360       .  A
C27         C119   1.478       .  S
N28          C29   1.355       .  A
C29          N30   1.357       .  A
C29         C128   1.435       .  S
N30          C31   1.359       .  A
C31          N32   1.358       .  A
C31         C126   1.436       .  S
C33          N34   1.357       .  A
C33          N38   1.360       .  A
C33         C102   1.483       .  S
N34          C35   1.352       .  A
C35          N36   1.358       .  A
C35         C111   1.437       .  S
N36          C37   1.361       .  A
C37          N38   1.359       .  A
C37         C113   1.437       .  S
C39          N40   1.358       .  A
C39          N44   1.358       .  A
C39          C88   1.479       .  S
N40          C41   1.357       .  A
C41          N42   1.360       .  A
C41          C99   1.435       .  S
N42          C43   1.358       .  A
C43          N44   1.353       .  A
C43          C98   1.436       .  S
C45         C114   1.445       .  S
C45          C46   1.409       .  A
C45          C50   1.402       .  A
C46         C849   1.445   1_455  S
C46         C727   1.402   1_455  A
C47         C726   1.402       .  A
C47         C728   1.401       .  A
C47          H52   1.085       .  S
C48         C780   1.443   1_455  S
C48          C49   1.408       .  A
C48         C727   1.401   1_455  A
C49         C125   1.445       .  S
C49          C50   1.402       .  A
C50          H51   1.085       .  S
C53         C153   1.447       .  S
C53          C58   1.403       .  A
C53         C394   1.409       .  A
C54          C97   1.445       .  S
C54          C55   1.402       .  A
C54         C393   1.409   1_545  A
C55          C56   1.403       .  A
C55          H60   1.085       .  S
C56         C141   1.447       .  S
C56          C57   1.410   1_545  A
C57         C452   1.447       .  S
C57         C398   1.403       .  A
C58         C397   1.403       .  A
C58          H59   1.085       .  S
O61         Ni67   1.922       .  S
O61          C82   1.271       .  A
O62        Ni765   1.902       .  S
O62          C71   1.264       .  A
O63         Ni67   1.924       .  S
O63         Ni79   1.930       .  S
O63        Ni425   1.916   1_545  S
O63         H426   0.967   1_545  S
C64          C91   1.480       .  S
C64          O73   1.275       .  A
C64         O761   1.273       .  A
O65         Ni84   1.936       .  S
O65          C71   1.270       .  A
O66         Ni84   1.902       .  S
O66          C68   1.269       .  A
Ni67         O70   1.927       .  S
Ni67         O72   1.910       .  S
C68         C331   1.481   1_554  S
C68         O758   1.274       .  A
O69         Ni85   1.906       .  S
O69          C75   1.266       .  A
O70         C415   1.271   1_545  A
C71         C144   1.474       .  S
O72          C74   1.273       .  A
O73        Ni594   1.922   1_545  S
C74         C116   1.480       .  S
C74          O80   1.276       .  A
C75         C105   1.480       .  S
C75         O410   1.271       .  A
H76          O77   0.966       .  S
O77       Ni1105   1.897   1_545  S
O77        Ni759   1.909       .  S
O77        Ni424   1.918   1_545  S
O78        Ni419   1.935       .  S
O78         C748   1.274   1_455  A
Ni79         O83   1.913   1_554  S
Ni79        O418   1.935   1_545  S
Ni79        O251   1.910       .  S
Ni79        O757   1.909   1_455  S
O80        Ni425   1.934   1_545  S
O81        Ni249   1.910       .  S
O81         C744   1.273   1_455  A
C82         C303   1.479   1_554  S
C82          O83   1.269   1_554  A
Ni84        O583   1.922       .  S
Ni84        O417   1.918       .  S
Ni85        O742   1.902   1_455  S
Ni85        O420   1.934       .  S
Ni85        O403   1.915       .  S
Ni85       O1097   1.897   1_455  S
H86         O403   0.967       .  S
C87          C88   1.404       .  A
C87          C92   1.391       .  A
C87          H93   1.083       .  S
C88          C89   1.407       .  A
C89          C90   1.401       .  A
C89          H94   1.083       .  S
C90          C91   1.406       .  A
C90         H775   1.083       .  S
C91          C92   1.406       .  A
C92          H96   1.083       .  S
H95         C770   1.083   1_455  S
C97          C98   1.207       .  T
C99         C100   1.206       .  T
C100        C728   1.443       .  S
C101        C102   1.408       .  A
C101        C106   1.403       .  A
C101        H107   1.083       .  S
C102        C103   1.405       .  A
C103        C444   1.391       .  A
C103        H448   1.083       .  S
C104        C443   1.391       .  A
C104        C445   1.404       .  A
C104        H109   1.083   1_565  S
C105        C106   1.407       .  A
C105        C444   1.404       .  A
C106        H110   1.083       .  S
H108        C443   1.083       .  S
C111        C112   1.207       .  T
C112        C397   1.447       .  S
C113        C114   1.207       .  T
C115        C116   1.407       .  A
C115        C120   1.398       .  A
C115        H121   1.083       .  S
C116        C117   1.404       .  A
C117        C118   1.398       .  A
C117        H122   1.083       .  S
C118        C119   1.406       .  A
C118        H123   1.083       .  S
C119        C120   1.403       .  A
C120        H124   1.083       .  S
C125        C126   1.206       .  T
C127        C128   1.206       .  T
C129        C130   1.404       .  A
C129        C304   1.395       .  A
C129        H305   1.083       .  S
C130        C131   1.407       .  A
C131        C132   1.405       .  A
C131        H136   1.083       .  S
C132        C133   1.406       .  A
C132        H137   1.083       .  S
C133        C252   1.479       .  S
C133        C304   1.404       .  A
C134        C299   1.395       .  A
C134        C303   1.404       .  A
C134        H138   1.083       .  S
H135        C299   1.083       .  S
C139        C140   1.208       .  T
C141        C142   1.208       .  T
C143        C144   1.405       .  A
C143        C148   1.399       .  A
C143        H149   1.083       .  S
C144        C145   1.404       .  A
C145        C146   1.398       .  A
C145        H150   1.083       .  S
C146        C147   1.404       .  A
C146        H151   1.083       .  S
C147        C148   1.403       .  A
C148        H152   1.083       .  S
C153        C154   1.208       .  T
C155        C156   1.208       .  T
C157        C158   1.404       .  A
C157        C162   1.395       .  A
C157        H163   1.083       .  S
C158        C159   1.405       .  A
C159        C160   1.400       .  A
C159        H164   1.083       .  S
C160        C161   1.407       .  A
C160        H165   1.083       .  S
C161        C238   1.481       .  S
C161        C162   1.406       .  A
C162        H166   1.083       .  S
C167        C168   1.208       .  T
C169        C726   1.445       .  S
C169        C170   1.207       .  T
C171        N172   1.359       .  A
C171        N176   1.359       .  A
C171        C328   1.478       .  S
N172        C173   1.355       .  A
C173        N174   1.358       .  A
C173        C338   1.438       .  S
N174        C175   1.360       .  A
C175        N176   1.358       .  A
C175        C340   1.437       .  S
C177        N178   1.360       .  A
C177        N182   1.359       .  A
C177        C317   1.473       .  S
N178        C179   1.357       .  A
C179        N180   1.358       .  A
C179        C326   1.438       .  S
N180        C181   1.358       .  A
C181        N182   1.357       .  A
C181        C324   1.438       .  S
C183        N184   1.361       .  A
C183        N188   1.362       .  A
C183        C300   1.481       .  S
N184        C185   1.356       .  A
C185        N186   1.357       .  A
C185        C312   1.439       .  S
N186        C187   1.358       .  A
C187        N188   1.360       .  A
C187        C309   1.439       .  S
C189        C337   1.447       .  S
C189        C190   1.410       .  A
C189        C194   1.404       .  A
C190        C325   1.447       .  S
C190        C191   1.401       .  A
C191        C192   1.401       .  A
C191        H196   1.085       .  S
C192        C297   1.444       .  S
C192        C193   1.409       .  A
C193        C310   1.448       .  S
C193        C194   1.404       .  A
C194        H195   1.085       .  S
C197        N198   1.358       .  A
C197        N202   1.360       .  A
C197        C289   1.478       .  S
N198        C199   1.355       .  A
C199        N200   1.357       .  A
C199        C298   1.435       .  S
N200        C201   1.359       .  A
C201        N202   1.358       .  A
C201        C296   1.436       .  S
C203        N204   1.357       .  A
C203        N208   1.360       .  A
C203        C272   1.483       .  S
N204        C205   1.352       .  A
C205        N206   1.358       .  A
C205        C281   1.437       .  S
N206        C207   1.361       .  A
C207        N208   1.359       .  A
C207        C283   1.437       .  S
C209        N210   1.358       .  A
C209        N214   1.358       .  A
C209        C258   1.479       .  S
N210        C211   1.357       .  A
C211        N212   1.360       .  A
C211        C269   1.435       .  S
N212        C213   1.358       .  A
C213        N214   1.353       .  A
C213        C268   1.436       .  S
C215        C284   1.445       .  S
C215        C216   1.409       .  A
C215        C220   1.402       .  A
C216       C1019   1.445   1_455  S
C216        C897   1.402   1_455  A
C217        C896   1.402       .  A
C217        C898   1.401       .  A
C217        H222   1.085       .  S
C218        C950   1.443   1_455  S
C218        C897   1.401   1_455  A
C218        C219   1.408       .  A
C219        C295   1.445       .  S
C219        C220   1.402       .  A
C220        H221   1.085       .  S
C223        C323   1.447       .  S
C223        C564   1.409       .  A
C223        C228   1.403       .  A
C224        C267   1.445       .  S
C224        C563   1.409   1_545  A
C224        C225   1.402       .  A
C225        C226   1.403       .  A
C225        H230   1.085       .  S
C226        C311   1.447       .  S
C226        C227   1.410   1_545  A
C227        C622   1.447       .  S
C227        C568   1.403       .  A
C228        C567   1.403       .  A
C228        H229   1.085       .  S
O231       Ni237   1.922       .  S
O231        C252   1.271       .  A
O232       Ni935   1.902       .  S
O232        C241   1.264       .  A
O233       Ni237   1.924       .  S
O233       Ni595   1.916   1_545  S
O233       Ni249   1.930       .  S
O233        H596   0.967   1_545  S
C234        C261   1.480       .  S
C234        O931   1.273   1_556  A
C234        O243   1.275   1_556  A
O235       Ni254   1.936       .  S
O235        C241   1.270       .  A
O236       Ni254   1.902       .  S
O236        C238   1.269       .  A
Ni237       O240   1.927       .  S
Ni237       O242   1.910       .  S
C238        O928   1.274       .  A
O239       Ni255   1.906       .  S
O239        C245   1.266       .  A
O240        C585   1.271   1_545  A
C241        C314   1.474       .  S
O242        C244   1.273       .  A
O243       Ni424   1.922   1_545  S
C244        C286   1.480       .  S
C244        O250   1.276       .  A
C245        C275   1.480       .  S
C245        O580   1.271       .  A
H246        O247   0.966       .  S
O247      Ni1275   1.898   1_545  S
O247       Ni929   1.909       .  S
O247       Ni594   1.918   1_545  S
O248       Ni589   1.934       .  S
O248        C918   1.274   1_455  A
Ni249       O588   1.934   1_545  S
Ni249       O253   1.913       .  S
Ni249       O927   1.909   1_455  S
O250       Ni595   1.934   1_545  S
O251        C914   1.273   1_454  A
C252        O253   1.269       .  A
Ni254       O413   1.922       .  S
Ni254       O587   1.918       .  S
Ni255       O912   1.902   1_455  S
Ni255       O590   1.934       .  S
Ni255       O573   1.916       .  S
Ni255      O1267   1.897   1_455  S
H256        O573   0.967       .  S
C257        C258   1.404       .  A
C257        C262   1.391       .  A
C257        H263   1.083       .  S
C258        C259   1.407       .  A
C259        C260   1.401       .  A
C259        H264   1.083       .  S
C260        C261   1.406       .  A
C260        H945   1.083       .  S
C261        C262   1.406       .  A
C262        H266   1.083       .  S
H265        C940   1.083   1_455  S
C267        C268   1.207       .  T
C269        C270   1.206       .  T
C270        C898   1.443       .  S
C271        C272   1.408       .  A
C271        C276   1.403       .  A
C271        H277   1.083       .  S
C272        C273   1.405       .  A
C273        C614   1.391       .  A
C273        H618   1.083       .  S
C274        C613   1.391       .  A
C274        C615   1.404       .  A
C274        H279   1.083   1_565  S
C275        C614   1.404       .  A
C275        C276   1.407       .  A
C276        H280   1.083       .  S
H278        C613   1.083       .  S
C281        C282   1.207       .  T
C282        C567   1.447       .  S
C283        C284   1.207       .  T
C285        C286   1.407       .  A
C285        C290   1.398       .  A
C285        H291   1.083       .  S
C286        C287   1.404       .  A
C287        C288   1.398       .  A
C287        H292   1.083       .  S
C288        C289   1.406       .  A
C288        H293   1.083       .  S
C289        C290   1.403       .  A
C290        H294   1.083       .  S
C295        C296   1.206       .  T
C297        C298   1.206       .  T
C299        C300   1.404       .  A
C300        C301   1.407       .  A
C301        C302   1.405       .  A
C301        H306   1.083       .  S
C302        C303   1.406       .  A
C302        H307   1.083       .  S
C304        H308   1.083       .  S
C309        C310   1.208       .  T
C311        C312   1.208       .  T
C313        C314   1.405       .  A
C313        C318   1.399       .  A
C313        H319   1.083       .  S
C314        C315   1.404       .  A
C315        C316   1.398       .  A
C315        H320   1.083       .  S
C316        C317   1.404       .  A
C316        H321   1.083       .  S
C317        C318   1.403       .  A
C318        H322   1.083       .  S
C323        C324   1.208       .  T
C325        C326   1.208       .  T
C327        C328   1.404       .  A
C327        C332   1.395       .  A
C327        H333   1.083       .  S
C328        C329   1.405       .  A
C329        C330   1.400       .  A
C329        H334   1.083       .  S
C330        C331   1.407       .  A
C330        H335   1.083       .  S
C331        C332   1.406       .  A
C332        H336   1.083       .  S
C337        C338   1.208       .  T
C339        C896   1.445       .  S
C339        C340   1.207       .  T
C341        N342   1.359       .  A
C341        N346   1.359       .  A
C341        C498   1.478       .  S
N342        C343   1.355       .  A
C343        N344   1.358       .  A
C343        C508   1.438       .  S
N344        C345   1.360       .  A
C345        N346   1.358       .  A
C345        C510   1.437       .  S
C347        N348   1.360       .  A
C347        N352   1.359       .  A
C347        C487   1.473       .  S
N348        C349   1.357       .  A
C349        N350   1.358       .  A
C349        C496   1.438       .  S
N350        C351   1.358       .  A
C351        N352   1.357       .  A
C351        C494   1.438       .  S
C353        N354   1.361       .  A
C353        N358   1.362       .  A
C353        C470   1.481       .  S
N354        C355   1.356       .  A
C355        N356   1.357       .  A
C355        C482   1.439       .  S
N356        C357   1.358       .  A
C357        N358   1.360       .  A
C357        C479   1.439       .  S
C359        C507   1.447       .  S
C359        C360   1.410       .  A
C359        C364   1.404       .  A
C360        C495   1.447       .  S
C360        C361   1.401       .  A
C361        C362   1.401       .  A
C361        H366   1.085       .  S
C362        C467   1.444       .  S
C362        C363   1.409       .  A
C363        C480   1.448       .  S
C363        C364   1.404       .  A
C364        H365   1.085       .  S
C367        N368   1.358       .  A
C367        N372   1.360       .  A
C367        C459   1.478       .  S
N368        C369   1.355       .  A
C369        N370   1.357       .  A
C369        C468   1.435       .  S
N370        C371   1.359       .  A
C371        N372   1.358       .  A
C371        C466   1.436       .  S
C373        N374   1.357       .  A
C373        N378   1.360       .  A
C373        C442   1.483       .  S
N374        C375   1.352       .  A
C375        N376   1.358       .  A
C375        C451   1.437       .  S
N376        C377   1.361       .  A
C377        N378   1.359       .  A
C377        C453   1.437       .  S
C379        N380   1.358       .  A
C379        N384   1.358       .  A
C379        C428   1.479       .  S
N380        C381   1.358       .  A
C381        N382   1.360       .  A
C381        C439   1.435       .  S
N382        C383   1.358       .  A
C383        N384   1.353       .  A
C383        C438   1.436       .  S
C385        C454   1.445       .  S
C385        C386   1.409       .  A
C385        C390   1.402       .  A
C386       C1189   1.445   1_455  S
C386       C1067   1.402   1_455  A
C387       C1066   1.402       .  A
C387       C1068   1.401       .  A
C387        H392   1.085       .  S
C388       C1120   1.443   1_455  S
C388       C1067   1.401   1_455  A
C388        C389   1.408       .  A
C389        C465   1.445       .  S
C389        C390   1.402       .  A
C390        H391   1.085       .  S
C393        C493   1.447       .  S
C393        C398   1.403       .  A
C394        C437   1.445       .  S
C394        C395   1.402       .  A
C395        C396   1.403       .  A
C395        H400   1.085       .  S
C396        C481   1.447       .  S
C396        C397   1.410       .  A
C398        H399   1.085       .  S
O401       Ni407   1.922       .  S
O401        C422   1.271       .  A
O402      Ni1105   1.902       .  S
O402        C411   1.264       .  A
O403       Ni407   1.924       .  S
O403       Ni419   1.930       .  S
C404        C431   1.480       .  S
C404       O1101   1.273       .  A
C404        O413   1.275       .  A
O405       Ni424   1.936       .  S
O405        C411   1.270       .  A
O406       Ni424   1.902       .  S
O406        C408   1.269       .  A
Ni407       O410   1.927       .  S
Ni407       O412   1.910       .  S
C408        C671   1.481   1_554  S
C408       O1098   1.274       .  A
O409       Ni425   1.906       .  S
O409        C415   1.266       .  A
C411        C484   1.474       .  S
O412        C414   1.273       .  A
C414        C456   1.480       .  S
C414        O420   1.276       .  A
C415        C445   1.480       .  S
H416        O417   0.966       .  S
O417       Ni765   1.897       .  S
O417      Ni1099   1.909       .  S
O418       C1088   1.274   1_455  A
Ni419       O423   1.913   1_554  S
Ni419       O591   1.910       .  S
Ni419      O1097   1.909   1_455  S
O421       Ni589   1.910       .  S
O421       C1084   1.273   1_455  A
C422        C643   1.479   1_554  S
C422        O423   1.269   1_554  A
Ni425      O1082   1.902   1_455  S
Ni425       O757   1.897   1_465  S
C427        C428   1.404       .  A
C427        C432   1.391       .  A
C427        H433   1.083       .  S
C428        C429   1.407       .  A
C429        C430   1.401       .  A
C429        H434   1.083       .  S
C430        C431   1.406       .  A
C430       H1115   1.083       .  S
C431        C432   1.406       .  A
C432        H436   1.083       .  S
H435       C1110   1.083   1_455  S
C437        C438   1.207       .  T
C439        C440   1.206       .  T
C440       C1068   1.443       .  S
C441        C442   1.408       .  A
C441        C446   1.403       .  A
C441        H447   1.083       .  S
C442        C443   1.405       .  A
C444        H449   1.083       .  S
C445        C446   1.407       .  A
C446        H450   1.083       .  S
C451        C452   1.207       .  T
C453        C454   1.207       .  T
C455        C456   1.407       .  A
C455        C460   1.398       .  A
C455        H461   1.083       .  S
C456        C457   1.404       .  A
C457        C458   1.398       .  A
C457        H462   1.083       .  S
C458        C459   1.406       .  A
C458        H463   1.083       .  S
C459        C460   1.403       .  A
C460        H464   1.083       .  S
C465        C466   1.206       .  T
C467        C468   1.206       .  T
C469        C470   1.404       .  A
C469        C644   1.395       .  A
C469        H645   1.083       .  S
C470        C471   1.407       .  A
C471        C472   1.405       .  A
C471        H476   1.083       .  S
C472        C473   1.406       .  A
C472        H477   1.083       .  S
C473        C592   1.479       .  S
C473        C644   1.404       .  A
C474        C639   1.395       .  A
C474        C643   1.404       .  A
C474        H478   1.083       .  S
H475        C639   1.083       .  S
C479        C480   1.208       .  T
C481        C482   1.208       .  T
C483        C484   1.405       .  A
C483        C488   1.399       .  A
C483        H489   1.083   1_565  S
C484        C485   1.404       .  A
C485        C486   1.398       .  A
C485        H490   1.083       .  S
C486        C487   1.404       .  A
C486        H491   1.083       .  S
C487        C488   1.403       .  A
C488        H492   1.083       .  S
C493        C494   1.208       .  T
C495        C496   1.208       .  T
C497        C498   1.404       .  A
C497        C502   1.395       .  A
C497        H503   1.083       .  S
C498        C499   1.405       .  A
C499        C500   1.400       .  A
C499        H504   1.083       .  S
C500        C501   1.407       .  A
C500        H505   1.083       .  S
C501        C578   1.481       .  S
C501        C502   1.406       .  A
C502        H506   1.083       .  S
C507        C508   1.208       .  T
C509       C1066   1.445       .  S
C509        C510   1.207       .  T
C511        N512   1.359       .  A
C511        N516   1.359       .  A
C511        C668   1.478       .  S
N512        C513   1.355       .  A
C513        N514   1.358       .  A
C513        C678   1.438       .  S
N514        C515   1.360       .  A
C515        N516   1.358       .  A
C515        C680   1.437       .  S
C517        N518   1.360       .  A
C517        N522   1.359       .  A
C517        C657   1.473       .  S
N518        C519   1.357       .  A
C519        N520   1.358       .  A
C519        C666   1.438       .  S
N520        C521   1.358       .  A
C521        N522   1.357       .  A
C521        C664   1.438       .  S
C523        N524   1.361       .  A
C523        N528   1.362       .  A
C523        C640   1.481       .  S
N524        C525   1.356       .  A
C525        N526   1.357       .  A
C525        C652   1.439       .  S
N526        C527   1.358       .  A
C527        N528   1.360       .  A
C527        C649   1.439       .  S
C529        C677   1.447       .  S
C529        C530   1.410       .  A
C529        C534   1.404       .  A
C530        C665   1.447       .  S
C530        C531   1.401       .  A
C531        C532   1.401       .  A
C531        H536   1.085       .  S
C532        C637   1.444       .  S
C532        C533   1.409       .  A
C533        C650   1.448       .  S
C533        C534   1.404       .  A
C534        H535   1.085       .  S
C537        N538   1.358       .  A
C537        N542   1.360       .  A
C537        C629   1.478       .  S
N538        C539   1.355       .  A
C539        N540   1.357       .  A
C539        C638   1.435       .  S
N540        C541   1.359       .  A
C541        N542   1.358       .  A
C541        C636   1.436       .  S
C543        N544   1.357       .  A
C543        N548   1.360       .  A
C543        C612   1.483       .  S
N544        C545   1.352       .  A
C545        N546   1.358       .  A
C545        C621   1.437       .  S
N546        C547   1.361       .  A
C547        N548   1.359       .  A
C547        C623   1.437       .  S
C549        N550   1.358       .  A
C549        N554   1.358       .  A
C549        C598   1.479       .  S
N550        C551   1.357       .  A
C551        N552   1.360       .  A
C551        C609   1.435       .  S
N552        C553   1.358       .  A
C553        N554   1.353       .  A
C553        C608   1.436       .  S
C555        C624   1.445       .  S
C555        C556   1.409       .  A
C555        C560   1.402       .  A
C556       C1359   1.445   1_455  S
C556       C1237   1.402   1_455  A
C557       C1236   1.402       .  A
C557       C1238   1.401       .  A
C557        H562   1.085       .  S
C558       C1290   1.443   1_455  S
C558       C1237   1.401   1_455  A
C558        C559   1.408       .  A
C559        C635   1.445       .  S
C559        C560   1.402       .  A
C560        H561   1.085       .  S
C563        C663   1.447       .  S
C563        C568   1.403       .  A
C564        C607   1.445       .  S
C564        C565   1.402       .  A
C565        C566   1.403       .  A
C565        H570   1.085       .  S
C566        C651   1.447       .  S
C566        C567   1.410       .  A
C568        H569   1.085       .  S
O571       Ni577   1.922       .  S
O571        C592   1.271       .  A
O572      Ni1275   1.902       .  S
O572        C581   1.264       .  A
O573       Ni577   1.924       .  S
O573       Ni589   1.930       .  S
C574        C601   1.480       .  S
C574       O1271   1.273   1_556  A
C574        O583   1.275   1_556  A
O575       Ni594   1.935       .  S
O575        C581   1.270       .  A
O576       Ni594   1.902       .  S
O576        C578   1.269       .  A
Ni577       O580   1.927       .  S
Ni577       O582   1.910       .  S
C578       O1268   1.274       .  A
O579       Ni595   1.906       .  S
O579        C585   1.266       .  A
C581        C654   1.474       .  S
O582        C584   1.273       .  A
C584        C626   1.480       .  S
C584        O590   1.275       .  A
C585        C615   1.480       .  S
H586        O587   0.966       .  S
O587       Ni935   1.897       .  S
O587      Ni1269   1.909       .  S
O588       C1258   1.274   1_455  A
Ni589       O593   1.913       .  S
Ni589      O1267   1.909   1_455  S
O591       C1254   1.273   1_454  A
C592        O593   1.269       .  A
Ni595      O1252   1.902   1_455  S
Ni595       O927   1.898   1_465  S
C597        C598   1.404       .  A
C597        C602   1.391       .  A
C597        H603   1.083       .  S
C598        C599   1.407       .  A
C599        C600   1.401       .  A
C599        H604   1.083       .  S
C600        C601   1.406       .  A
C600       H1285   1.083       .  S
C601        C602   1.406       .  A
C602        H606   1.083       .  S
H605       C1280   1.083   1_455  S
C607        C608   1.207       .  T
C609        C610   1.206       .  T
C610       C1238   1.443       .  S
C611        C612   1.408       .  A
C611        C616   1.403       .  A
C611        H617   1.083       .  S
C612        C613   1.405       .  A
C614        H619   1.083       .  S
C615        C616   1.407       .  A
C616        H620   1.083       .  S
C621        C622   1.207       .  T
C623        C624   1.207       .  T
C625        C626   1.407       .  A
C625        C630   1.398       .  A
C625        H631   1.083       .  S
C626        C627   1.404       .  A
C627        C628   1.398       .  A
C627        H632   1.083       .  S
C628        C629   1.406       .  A
C628        H633   1.083       .  S
C629        C630   1.403       .  A
C630        H634   1.083       .  S
C635        C636   1.206       .  T
C637        C638   1.206       .  T
C639        C640   1.404       .  A
C640        C641   1.407       .  A
C641        C642   1.405       .  A
C641        H646   1.083       .  S
C642        C643   1.406       .  A
C642        H647   1.083       .  S
C644        H648   1.083       .  S
C649        C650   1.208       .  T
C651        C652   1.208       .  T
C653        C654   1.405       .  A
C653        C658   1.399       .  A
C653        H659   1.083   1_565  S
C654        C655   1.404       .  A
C655        C656   1.398       .  A
C655        H660   1.083       .  S
C656        C657   1.404       .  A
C656        H661   1.083       .  S
C657        C658   1.403       .  A
C658        H662   1.083       .  S
C663        C664   1.208       .  T
C665        C666   1.208       .  T
C667        C668   1.404       .  A
C667        C672   1.395       .  A
C667        H673   1.083       .  S
C668        C669   1.405       .  A
C669        C670   1.400       .  A
C669        H674   1.083       .  S
C670        C671   1.407       .  A
C670        H675   1.083       .  S
C671        C672   1.406       .  A
C672        H676   1.083       .  S
C677        C678   1.208       .  T
C679       C1236   1.445       .  S
C679        C680   1.207       .  T
C681        N682   1.359       .  A
C681        N686   1.359       .  A
C681        C838   1.478       .  S
N682        C683   1.355       .  A
C683        N684   1.358       .  A
C683        C848   1.438       .  S
N684        C685   1.360       .  A
C685        N686   1.358       .  A
C685        C850   1.437       .  S
C687        N688   1.360       .  A
C687        N692   1.359       .  A
C687        C827   1.473       .  S
N688        C689   1.357       .  A
C689        N690   1.358       .  A
C689        C836   1.438       .  S
N690        C691   1.358       .  A
C691        N692   1.357       .  A
C691        C834   1.438       .  S
C693        N694   1.361       .  A
C693        N698   1.362       .  A
C693        C810   1.481       .  S
N694        C695   1.356       .  A
C695        N696   1.357       .  A
C695        C822   1.439       .  S
N696        C697   1.358       .  A
C697        N698   1.360       .  A
C697        C819   1.439       .  S
C699        C847   1.447       .  S
C699        C700   1.410       .  A
C699        C704   1.404       .  A
C700        C835   1.447       .  S
C700        C701   1.401       .  A
C701        C702   1.401       .  A
C701        H706   1.085       .  S
C702        C807   1.444       .  S
C702        C703   1.409       .  A
C703        C820   1.448       .  S
C703        C704   1.404       .  A
C704        H705   1.085       .  S
C707        N708   1.358       .  A
C707        N712   1.360       .  A
C707        C799   1.478       .  S
N708        C709   1.355       .  A
C709        N710   1.357       .  A
C709        C808   1.435       .  S
N710        C711   1.359       .  A
C711        N712   1.358       .  A
C711        C806   1.436       .  S
C713        N714   1.357       .  A
C713        N718   1.360       .  A
C713        C782   1.483       .  S
N714        C715   1.352       .  A
C715        N716   1.358       .  A
C715        C791   1.437       .  S
N716        C717   1.361       .  A
C717        N718   1.359       .  A
C717        C793   1.437       .  S
C719        N720   1.358       .  A
C719        N724   1.358       .  A
C719        C768   1.479       .  S
N720        C721   1.357       .  A
C721        N722   1.360       .  A
C721        C779   1.435       .  S
N722        C723   1.358       .  A
C723        N724   1.353       .  A
C723        C778   1.436       .  S
C725        C794   1.445       .  S
C725        C726   1.409       .  A
C725        C730   1.402       .  A
C727        H732   1.085       .  S
C728        C729   1.408       .  A
C729        C805   1.445       .  S
C729        C730   1.402       .  A
C730        H731   1.085       .  S
C733        C833   1.447       .  S
C733       C1074   1.409       .  A
C733        C738   1.403       .  A
C734        C777   1.445       .  S
C734       C1073   1.409   1_545  A
C734        C735   1.402       .  A
C735        C736   1.403       .  A
C735        H740   1.085       .  S
C736        C821   1.447       .  S
C736        C737   1.410   1_545  A
C737       C1132   1.447       .  S
C737       C1078   1.403       .  A
C738       C1077   1.403       .  A
C738        H739   1.085       .  S
O741       Ni747   1.922       .  S
O741        C762   1.271       .  A
O742        C751   1.264       .  A
O743       Ni747   1.924       .  S
O743      Ni1105   1.916   1_545  S
O743       Ni759   1.930       .  S
O743       H1106   0.967   1_545  S
C744        C771   1.480       .  S
C744        O753   1.275       .  A
O745       Ni764   1.936       .  S
O745        C751   1.270       .  A
O746       Ni764   1.902       .  S
O746        C748   1.269       .  A
Ni747       O750   1.927       .  S
Ni747       O752   1.910       .  S
C748       C1011   1.481   1_554  S
O749       Ni765   1.906       .  S
O749        C755   1.266       .  A
O750       C1095   1.271   1_545  A
C751        C824   1.474       .  S
O752        C754   1.273       .  A
O753      Ni1274   1.922   1_545  S
C754        C796   1.480       .  S
C754        O760   1.276       .  A
C755        C785   1.480       .  S
C755       O1090   1.271       .  A
H756        O757   0.966       .  S
O757      Ni1104   1.918   1_545  S
O758      Ni1099   1.935       .  S
Ni759      O1098   1.935   1_545  S
Ni759       O763   1.913   1_554  S
Ni759       O931   1.910       .  S
O760      Ni1105   1.934   1_545  S
O761       Ni929   1.910       .  S
C762        C983   1.479   1_554  S
C762        O763   1.269   1_554  A
Ni764      O1263   1.922       .  S
Ni764      O1097   1.918       .  S
Ni765      O1100   1.934       .  S
Ni765      O1083   1.915       .  S
H766       O1083   0.967       .  S
C767        C768   1.404       .  A
C767        C772   1.391       .  A
C767        H773   1.083       .  S
C768        C769   1.407       .  A
C769        C770   1.401       .  A
C769        H774   1.083       .  S
C770        C771   1.406       .  A
C771        C772   1.406       .  A
C772        H776   1.083       .  S
C777        C778   1.207       .  T
C779        C780   1.206       .  T
C781        C782   1.408       .  A
C781        C786   1.403       .  A
C781        H787   1.083       .  S
C782        C783   1.405       .  A
C783       C1124   1.391       .  A
C783       H1128   1.083       .  S
C784       C1123   1.391       .  A
C784       C1125   1.404       .  A
C784        H789   1.083   1_565  S
C785       C1124   1.404       .  A
C785        C786   1.407       .  A
C786        H790   1.083       .  S
H788       C1123   1.083       .  S
C791        C792   1.207       .  T
C792       C1077   1.447       .  S
C793        C794   1.207       .  T
C795        C796   1.407       .  A
C795        C800   1.398       .  A
C795        H801   1.083       .  S
C796        C797   1.404       .  A
C797        C798   1.398       .  A
C797        H802   1.083       .  S
C798        C799   1.406       .  A
C798        H803   1.083       .  S
C799        C800   1.403       .  A
C800        H804   1.083       .  S
C805        C806   1.206       .  T
C807        C808   1.206       .  T
C809        C810   1.404       .  A
C809        C984   1.395       .  A
C809        H985   1.083       .  S
C810        C811   1.407       .  A
C811        C812   1.405       .  A
C811        H816   1.083       .  S
C812        C813   1.406       .  A
C812        H817   1.083       .  S
C813        C932   1.479       .  S
C813        C984   1.404       .  A
C814        C979   1.395       .  A
C814        C983   1.404       .  A
C814        H818   1.083       .  S
H815        C979   1.083       .  S
C819        C820   1.208       .  T
C821        C822   1.208       .  T
C823        C824   1.405       .  A
C823        C828   1.399       .  A
C823        H829   1.083       .  S
C824        C825   1.404       .  A
C825        C826   1.398       .  A
C825        H830   1.083       .  S
C826        C827   1.404       .  A
C826        H831   1.083       .  S
C827        C828   1.403       .  A
C828        H832   1.083       .  S
C833        C834   1.208       .  T
C835        C836   1.208       .  T
C837        C838   1.404       .  A
C837        C842   1.395       .  A
C837        H843   1.083       .  S
C838        C839   1.405       .  A
C839        C840   1.400       .  A
C839        H844   1.083       .  S
C840        C841   1.407       .  A
C840        H845   1.083   1_655  S
C841        C918   1.481       .  S
C841        C842   1.406       .  A
C842        H846   1.083       .  S
C847        C848   1.208       .  T
C849        C850   1.207       .  T
C851        N852   1.359       .  A
C851        N856   1.359       .  A
C851       C1008   1.478       .  S
N852        C853   1.355       .  A
C853        N854   1.358       .  A
C853       C1018   1.438       .  S
N854        C855   1.360       .  A
C855        N856   1.358       .  A
C855       C1020   1.437       .  S
C857        N858   1.360       .  A
C857        N862   1.359       .  A
C857        C997   1.473       .  S
N858        C859   1.357       .  A
C859        N860   1.358       .  A
C859       C1006   1.438       .  S
N860        C861   1.358       .  A
C861        N862   1.357       .  A
C861       C1004   1.438       .  S
C863        N864   1.361       .  A
C863        N868   1.362       .  A
C863        C980   1.481       .  S
N864        C865   1.356       .  A
C865        N866   1.357       .  A
C865        C992   1.439       .  S
N866        C867   1.358       .  A
C867        N868   1.360       .  A
C867        C989   1.439       .  S
C869       C1017   1.447       .  S
C869        C870   1.410       .  A
C869        C874   1.404       .  A
C870       C1005   1.447       .  S
C870        C871   1.401       .  A
C871        C872   1.401       .  A
C871        H876   1.085       .  S
C872        C977   1.444       .  S
C872        C873   1.409       .  A
C873        C990   1.448       .  S
C873        C874   1.404       .  A
C874        H875   1.085       .  S
C877        N878   1.358       .  A
C877        N882   1.360       .  A
C877        C969   1.478       .  S
N878        C879   1.355       .  A
C879        N880   1.357       .  A
C879        C978   1.435       .  S
N880        C881   1.359       .  A
C881        N882   1.358       .  A
C881        C976   1.436       .  S
C883        N884   1.357       .  A
C883        N888   1.360       .  A
C883        C952   1.483       .  S
N884        C885   1.352       .  A
C885        N886   1.358       .  A
C885        C961   1.437       .  S
N886        C887   1.361       .  A
C887        N888   1.359       .  A
C887        C963   1.437       .  S
C889        N890   1.358       .  A
C889        N894   1.358       .  A
C889        C938   1.479       .  S
N890        C891   1.357       .  A
C891        N892   1.360       .  A
C891        C949   1.435       .  S
N892        C893   1.358       .  A
C893        N894   1.353       .  A
C893        C948   1.436       .  S
C895        C964   1.445       .  S
C895        C896   1.409       .  A
C895        C900   1.402       .  A
C897        H902   1.085       .  S
C898        C899   1.408       .  A
C899        C975   1.445       .  S
C899        C900   1.402       .  A
C900        H901   1.085       .  S
C903       C1003   1.447       .  S
C903       C1244   1.409       .  A
C903        C908   1.403       .  A
C904        C947   1.445       .  S
C904       C1243   1.409   1_545  A
C904        C905   1.402       .  A
C905        C906   1.403       .  A
C905        H910   1.085       .  S
C906        C991   1.447       .  S
C906        C907   1.410   1_545  A
C907       C1302   1.447       .  S
C907       C1248   1.403       .  A
C908       C1247   1.403       .  A
C908        H909   1.085       .  S
O911       Ni917   1.922       .  S
O911        C932   1.271       .  A
O912        C921   1.264       .  A
O913       Ni917   1.924       .  S
O913      Ni1275   1.916   1_545  S
O913       Ni929   1.930       .  S
O913       H1276   0.967   1_545  S
C914        C941   1.480       .  S
C914        O923   1.275   1_556  A
O915       Ni934   1.936       .  S
O915        C921   1.270       .  A
O916       Ni934   1.902       .  S
O916        C918   1.269       .  A
Ni917       O920   1.927       .  S
Ni917       O922   1.910       .  S
O919       Ni935   1.906       .  S
O919        C925   1.266       .  A
O920       C1265   1.271   1_545  A
C921        C994   1.474       .  S
O922        C924   1.273       .  A
O923      Ni1104   1.922   1_545  S
C924        C966   1.480       .  S
C924        O930   1.276       .  A
C925        C955   1.480       .  S
C925       O1260   1.271       .  A
H926        O927   0.966       .  S
O927      Ni1274   1.918   1_545  S
O928      Ni1269   1.934       .  S
Ni929      O1268   1.934   1_545  S
Ni929       O933   1.913       .  S
O930      Ni1275   1.934   1_545  S
C932        O933   1.269       .  A
Ni934      O1093   1.922       .  S
Ni934      O1267   1.918       .  S
Ni935      O1270   1.934       .  S
Ni935      O1253   1.916       .  S
H936       O1253   0.967       .  S
C937        C938   1.404       .  A
C937        C942   1.391       .  A
C937        H943   1.083       .  S
C938        C939   1.407       .  A
C939        C940   1.401       .  A
C939        H944   1.083       .  S
C940        C941   1.406       .  A
C941        C942   1.406       .  A
C942        H946   1.083       .  S
C947        C948   1.207       .  T
C949        C950   1.206       .  T
C951        C952   1.408       .  A
C951        C956   1.403       .  A
C951        H957   1.083       .  S
C952        C953   1.405       .  A
C953       C1294   1.391       .  A
C953       H1298   1.083       .  S
C954       C1293   1.391       .  A
C954       C1295   1.404       .  A
C954        H959   1.083   1_565  S
C955       C1294   1.404       .  A
C955        C956   1.407       .  A
C956        H960   1.083       .  S
H958       C1293   1.083       .  S
C961        C962   1.207       .  T
C962       C1247   1.447       .  S
C963        C964   1.207       .  T
C965        C966   1.407       .  A
C965        C970   1.398       .  A
C965        H971   1.083       .  S
C966        C967   1.404       .  A
C967        C968   1.398       .  A
C967        H972   1.083       .  S
C968        C969   1.406       .  A
C968        H973   1.083       .  S
C969        C970   1.403       .  A
C970        H974   1.083       .  S
C975        C976   1.206       .  T
C977        C978   1.206       .  T
C979        C980   1.404       .  A
C980        C981   1.407       .  A
C981        C982   1.405       .  A
C981        H986   1.083       .  S
C982        C983   1.406       .  A
C982        H987   1.083       .  S
C984        H988   1.083       .  S
C989        C990   1.208       .  T
C991        C992   1.208       .  T
C993        C994   1.405       .  A
C993        C998   1.399       .  A
C993        H999   1.083       .  S
C994        C995   1.404       .  A
C995        C996   1.398       .  A
C995       H1000   1.083       .  S
C996        C997   1.404       .  A
C996       H1001   1.083       .  S
C997        C998   1.403       .  A
C998       H1002   1.083       .  S
C1003      C1004   1.208       .  T
C1005      C1006   1.208       .  T
C1007      C1008   1.404       .  A
C1007      C1012   1.395       .  A
C1007      H1013   1.083       .  S
C1008      C1009   1.405       .  A
C1009      C1010   1.400       .  A
C1009      H1014   1.083       .  S
C1010      C1011   1.407       .  A
C1010      H1015   1.083   1_655  S
C1011      C1012   1.406       .  A
C1012      H1016   1.083       .  S
C1017      C1018   1.208       .  T
C1019      C1020   1.207       .  T
C1021      N1022   1.359       .  A
C1021      N1026   1.359       .  A
C1021      C1178   1.478       .  S
N1022      C1023   1.355       .  A
C1023      N1024   1.358       .  A
C1023      C1188   1.438       .  S
N1024      C1025   1.360       .  A
C1025      N1026   1.358       .  A
C1025      C1190   1.437       .  S
C1027      N1028   1.360       .  A
C1027      N1032   1.359       .  A
C1027      C1167   1.473       .  S
N1028      C1029   1.357       .  A
C1029      N1030   1.358       .  A
C1029      C1176   1.438       .  S
N1030      C1031   1.358       .  A
C1031      N1032   1.357       .  A
C1031      C1174   1.438       .  S
C1033      N1034   1.361       .  A
C1033      N1038   1.362       .  A
C1033      C1150   1.481       .  S
N1034      C1035   1.356       .  A
C1035      N1036   1.357       .  A
C1035      C1162   1.439       .  S
N1036      C1037   1.358       .  A
C1037      N1038   1.360       .  A
C1037      C1159   1.439       .  S
C1039      C1187   1.447       .  S
C1039      C1040   1.410       .  A
C1039      C1044   1.404       .  A
C1040      C1175   1.447       .  S
C1040      C1041   1.401       .  A
C1041      C1042   1.401       .  A
C1041      H1046   1.085       .  S
C1042      C1147   1.444       .  S
C1042      C1043   1.409       .  A
C1043      C1160   1.448       .  S
C1043      C1044   1.404       .  A
C1044      H1045   1.085       .  S
C1047      N1048   1.358       .  A
C1047      N1052   1.360       .  A
C1047      C1139   1.478       .  S
N1048      C1049   1.355       .  A
C1049      N1050   1.357       .  A
C1049      C1148   1.435       .  S
N1050      C1051   1.359       .  A
C1051      N1052   1.358       .  A
C1051      C1146   1.436       .  S
C1053      N1054   1.357       .  A
C1053      N1058   1.360       .  A
C1053      C1122   1.483       .  S
N1054      C1055   1.352       .  A
C1055      N1056   1.358       .  A
C1055      C1131   1.437       .  S
N1056      C1057   1.361       .  A
C1057      N1058   1.359       .  A
C1057      C1133   1.437       .  S
C1059      N1060   1.358       .  A
C1059      N1064   1.358       .  A
C1059      C1108   1.479       .  S
N1060      C1061   1.358       .  A
C1061      N1062   1.360       .  A
C1061      C1119   1.435       .  S
N1062      C1063   1.358       .  A
C1063      N1064   1.353       .  A
C1063      C1118   1.436       .  S
C1065      C1134   1.445       .  S
C1065      C1066   1.409       .  A
C1065      C1070   1.402       .  A
C1067      H1072   1.085       .  S
C1068      C1069   1.408       .  A
C1069      C1145   1.445       .  S
C1069      C1070   1.402       .  A
C1070      H1071   1.085       .  S
C1073      C1173   1.447       .  S
C1073      C1078   1.403       .  A
C1074      C1117   1.445       .  S
C1074      C1075   1.402       .  A
C1075      C1076   1.403       .  A
C1075      H1080   1.085       .  S
C1076      C1161   1.447       .  S
C1076      C1077   1.410       .  A
C1078      H1079   1.085       .  S
O1081     Ni1087   1.922       .  S
O1081      C1102   1.271       .  A
O1082      C1091   1.264       .  A
O1083     Ni1087   1.924       .  S
O1083     Ni1099   1.930       .  S
C1084      C1111   1.480       .  S
C1084      O1093   1.275       .  A
O1085     Ni1104   1.936       .  S
O1085      C1091   1.270       .  A
O1086     Ni1104   1.902       .  S
O1086      C1088   1.269       .  A
Ni1087     O1090   1.927       .  S
Ni1087     O1092   1.910       .  S
C1088      C1351   1.481   1_554  S
O1089     Ni1105   1.906       .  S
O1089      C1095   1.266       .  A
C1091      C1164   1.474       .  S
O1092      C1094   1.273       .  A
C1094      C1136   1.480       .  S
C1094      O1100   1.276       .  A
C1095      C1125   1.480       .  S
H1096      O1097   0.966       .  S
Ni1099     O1103   1.913   1_554  S
Ni1099     O1271   1.910       .  S
O1101     Ni1269   1.910       .  S
C1102      C1323   1.479   1_554  S
C1102      O1103   1.269   1_554  A
C1107      C1108   1.404       .  A
C1107      C1112   1.391       .  A
C1107      H1113   1.083       .  S
C1108      C1109   1.407       .  A
C1109      C1110   1.401       .  A
C1109      H1114   1.083       .  S
C1110      C1111   1.406       .  A
C1111      C1112   1.406       .  A
C1112      H1116   1.083       .  S
C1117      C1118   1.207       .  T
C1119      C1120   1.206       .  T
C1121      C1122   1.408       .  A
C1121      C1126   1.403       .  A
C1121      H1127   1.083       .  S
C1122      C1123   1.405       .  A
C1124      H1129   1.083       .  S
C1125      C1126   1.407       .  A
C1126      H1130   1.083       .  S
C1131      C1132   1.207       .  T
C1133      C1134   1.207       .  T
C1135      C1136   1.407       .  A
C1135      C1140   1.398       .  A
C1135      H1141   1.083       .  S
C1136      C1137   1.404       .  A
C1137      C1138   1.398       .  A
C1137      H1142   1.083       .  S
C1138      C1139   1.406       .  A
C1138      H1143   1.083       .  S
C1139      C1140   1.403       .  A
C1140      H1144   1.083       .  S
C1145      C1146   1.206       .  T
C1147      C1148   1.206       .  T
C1149      C1150   1.404       .  A
C1149      C1324   1.395       .  A
C1149      H1325   1.083       .  S
C1150      C1151   1.407       .  A
C1151      C1152   1.405       .  A
C1151      H1156   1.083       .  S
C1152      C1153   1.406       .  A
C1152      H1157   1.083       .  S
C1153      C1272   1.479       .  S
C1153      C1324   1.404       .  A
C1154      C1319   1.395       .  A
C1154      C1323   1.404       .  A
C1154      H1158   1.083       .  S
H1155      C1319   1.083       .  S
C1159      C1160   1.208       .  T
C1161      C1162   1.208       .  T
C1163      C1164   1.405       .  A
C1163      C1168   1.399       .  A
C1163      H1169   1.083   1_565  S
C1164      C1165   1.404       .  A
C1165      C1166   1.398       .  A
C1165      H1170   1.083       .  S
C1166      C1167   1.404       .  A
C1166      H1171   1.083       .  S
C1167      C1168   1.403       .  A
C1168      H1172   1.083       .  S
C1173      C1174   1.208       .  T
C1175      C1176   1.208       .  T
C1177      C1178   1.404       .  A
C1177      C1182   1.395       .  A
C1177      H1183   1.083       .  S
C1178      C1179   1.405       .  A
C1179      C1180   1.400       .  A
C1179      H1184   1.083       .  S
C1180      C1181   1.407       .  A
C1180      H1185   1.083   1_655  S
C1181      C1258   1.481       .  S
C1181      C1182   1.406       .  A
C1182      H1186   1.083       .  S
C1187      C1188   1.208       .  T
C1189      C1190   1.207       .  T
C1191      N1192   1.359       .  A
C1191      N1196   1.359       .  A
C1191      C1348   1.478       .  S
N1192      C1193   1.355       .  A
C1193      N1194   1.358       .  A
C1193      C1358   1.438       .  S
N1194      C1195   1.360       .  A
C1195      N1196   1.358       .  A
C1195      C1360   1.437       .  S
C1197      N1198   1.360       .  A
C1197      N1202   1.359       .  A
C1197      C1337   1.473       .  S
N1198      C1199   1.357       .  A
C1199      N1200   1.358       .  A
C1199      C1346   1.438       .  S
N1200      C1201   1.358       .  A
C1201      N1202   1.357       .  A
C1201      C1344   1.438       .  S
C1203      N1204   1.361       .  A
C1203      N1208   1.362       .  A
C1203      C1320   1.481       .  S
N1204      C1205   1.356       .  A
C1205      N1206   1.357       .  A
C1205      C1332   1.439       .  S
N1206      C1207   1.358       .  A
C1207      N1208   1.360       .  A
C1207      C1329   1.439       .  S
C1209      C1357   1.447       .  S
C1209      C1210   1.410       .  A
C1209      C1214   1.404       .  A
C1210      C1345   1.447       .  S
C1210      C1211   1.401       .  A
C1211      C1212   1.401       .  A
C1211      H1216   1.085       .  S
C1212      C1317   1.444       .  S
C1212      C1213   1.409       .  A
C1213      C1330   1.448       .  S
C1213      C1214   1.404       .  A
C1214      H1215   1.085       .  S
C1217      N1218   1.358       .  A
C1217      N1222   1.360       .  A
C1217      C1309   1.478       .  S
N1218      C1219   1.355       .  A
C1219      N1220   1.357       .  A
C1219      C1318   1.435       .  S
N1220      C1221   1.359       .  A
C1221      N1222   1.358       .  A
C1221      C1316   1.436       .  S
C1223      N1224   1.357       .  A
C1223      N1228   1.360       .  A
C1223      C1292   1.483       .  S
N1224      C1225   1.352       .  A
C1225      N1226   1.358       .  A
C1225      C1301   1.437       .  S
N1226      C1227   1.361       .  A
C1227      N1228   1.359       .  A
C1227      C1303   1.437       .  S
C1229      N1230   1.358       .  A
C1229      N1234   1.358       .  A
C1229      C1278   1.479       .  S
N1230      C1231   1.357       .  A
C1231      N1232   1.360       .  A
C1231      C1289   1.435       .  S
N1232      C1233   1.358       .  A
C1233      N1234   1.353       .  A
C1233      C1288   1.436       .  S
C1235      C1304   1.445       .  S
C1235      C1236   1.409       .  A
C1235      C1240   1.402       .  A
C1237      H1242   1.085       .  S
C1238      C1239   1.408       .  A
C1239      C1315   1.445       .  S
C1239      C1240   1.402       .  A
C1240      H1241   1.085       .  S
C1243      C1343   1.447       .  S
C1243      C1248   1.403       .  A
C1244      C1287   1.445       .  S
C1244      C1245   1.402       .  A
C1245      C1246   1.403       .  A
C1245      H1250   1.085       .  S
C1246      C1331   1.447       .  S
C1246      C1247   1.410       .  A
C1248      H1249   1.085       .  S
O1251     Ni1257   1.922       .  S
O1251      C1272   1.271       .  A
O1252      C1261   1.264       .  A
O1253     Ni1257   1.924       .  S
O1253     Ni1269   1.930       .  S
C1254      C1281   1.480       .  S
C1254      O1263   1.275   1_556  A
O1255     Ni1274   1.935       .  S
O1255      C1261   1.270       .  A
O1256     Ni1274   1.902       .  S
O1256      C1258   1.269       .  A
Ni1257     O1260   1.927       .  S
Ni1257     O1262   1.910       .  S
O1259     Ni1275   1.906       .  S
O1259      C1265   1.266       .  A
C1261      C1334   1.474       .  S
O1262      C1264   1.273       .  A
C1264      C1306   1.480       .  S
C1264      O1270   1.275       .  A
C1265      C1295   1.480       .  S
H1266      O1267   0.966       .  S
Ni1269     O1273   1.913       .  S
C1272      O1273   1.269       .  A
C1277      C1278   1.404       .  A
C1277      C1282   1.391       .  A
C1277      H1283   1.083       .  S
C1278      C1279   1.407       .  A
C1279      C1280   1.401       .  A
C1279      H1284   1.083       .  S
C1280      C1281   1.406       .  A
C1281      C1282   1.406       .  A
C1282      H1286   1.083       .  S
C1287      C1288   1.207       .  T
C1289      C1290   1.206       .  T
C1291      C1292   1.408       .  A
C1291      C1296   1.403       .  A
C1291      H1297   1.083       .  S
C1292      C1293   1.405       .  A
C1294      H1299   1.083       .  S
C1295      C1296   1.407       .  A
C1296      H1300   1.083       .  S
C1301      C1302   1.207       .  T
C1303      C1304   1.207       .  T
C1305      C1306   1.407       .  A
C1305      C1310   1.398       .  A
C1305      H1311   1.083       .  S
C1306      C1307   1.404       .  A
C1307      C1308   1.398       .  A
C1307      H1312   1.083       .  S
C1308      C1309   1.406       .  A
C1308      H1313   1.083       .  S
C1309      C1310   1.403       .  A
C1310      H1314   1.083       .  S
C1315      C1316   1.206       .  T
C1317      C1318   1.206       .  T
C1319      C1320   1.404       .  A
C1320      C1321   1.407       .  A
C1321      C1322   1.405       .  A
C1321      H1326   1.083       .  S
C1322      C1323   1.406       .  A
C1322      H1327   1.083       .  S
C1324      H1328   1.083       .  S
C1329      C1330   1.208       .  T
C1331      C1332   1.208       .  T
C1333      C1334   1.405       .  A
C1333      C1338   1.399       .  A
C1333      H1339   1.083   1_565  S
C1334      C1335   1.404       .  A
C1335      C1336   1.398       .  A
C1335      H1340   1.083       .  S
C1336      C1337   1.404       .  A
C1336      H1341   1.083       .  S
C1337      C1338   1.403       .  A
C1338      H1342   1.083       .  S
C1343      C1344   1.208       .  T
C1345      C1346   1.208       .  T
C1347      C1348   1.404       .  A
C1347      C1352   1.395       .  A
C1347      H1353   1.083       .  S
C1348      C1349   1.405       .  A
C1349      C1350   1.400       .  A
C1349      H1354   1.083       .  S
C1350      C1351   1.407       .  A
C1350      H1355   1.083   1_655  S
C1351      C1352   1.406       .  A
C1352      H1356   1.083       .  S
C1357      C1358   1.208       .  T
C1359      C1360   1.207       .  T
