geometry optimzed in LAMMPS
_audit_creation_date              2020-11-30 
_audit_creation_method            'lammps2cif' 
_symmetry_space_group_name_H-M    'P1' 
_symmetry_Int_Tables_number       1 
_symmetry_cell_setting            triclinic 
loop_ 
_symmetry_equiv_pos_as_xyz 
  x,y,z 
_cell_length_a                    45.02169395 
_cell_length_b                    44.61279152070978 
_cell_length_c                    22.447402072982584 
_cell_angle_alpha                 91.42968595424556 
_cell_angle_beta                  87.6514336122668 
_cell_angle_gamma                 121.24559499403794 
loop_ 
_atom_site_label 
_atom_site_type_symbol 
_atom_site_fract_x 
_atom_site_fract_y 
_atom_site_fract_z 
_atom_site_charge 
C1          C  0.79922346  0.23035576  0.51807172     0.03000
C2          C  0.81100185  0.20723288  0.52678201    -0.13200
C3          C  0.79479070  0.16166508  0.02061735     0.00500
C4          C  0.80588178  0.19460615  0.04606454    -0.11700
C5          C  0.78231862  0.20557460  0.05983952     0.03000
C6          C  0.81967458  0.26572086  0.53729649    -0.11100
H7          H  0.79612722  0.18103362  0.50844372     0.08600
H8          H  0.83301697  0.21165442  0.05649962     0.06100
H9          H  0.81156145  0.28411422  0.52836760     0.05900
C10         C  0.17312320  0.43791785  0.52359021     0.03000
C11         C  0.20518872  0.45904879  0.55267177    -0.13200
C12         C  0.29158915  0.44159253  0.96717784     0.00500
C13         C  0.27875903  0.41288304  0.92782212    -0.11700
C14         C  0.18202574  0.38830497  0.52594433     0.03000
C15         C  0.16283015  0.40305533  0.50925187    -0.11100
H16         H  0.21382732  0.48598393  0.56434683     0.08600
H17         H  0.28924518  0.39585800  0.92885229     0.06100
H18         H  0.13931094  0.38690444  0.48495806     0.05900
C19         C  0.45826371  0.22347634  0.08248768     0.03000
C20         C  0.42354495  0.19945895  0.06853200    -0.13200
C21         C  0.40316907  0.21050570  0.04235815     0.00500
C22         C  0.42119014  0.19045385  0.52622990    -0.11700
C23         C  0.45659134  0.20503121  0.51124802     0.03000
C24         C  0.47291787  0.25958549  0.06900904    -0.11100
H25         H  0.41216143  0.17195513  0.07901926     0.08600
H26         H  0.40731255  0.20162673  0.50727197     0.06100
H27         H  0.49957306  0.27838492  0.07983219     0.05900
C28         C  0.29394812  0.84355866  0.50286802     0.03000
C29         C  0.28084130  0.81412066  0.54121052    -0.13200
C30         C  0.16021920  0.71440636  0.98527927     0.00500
C31         C  0.14691745  0.73497582  0.96667149    -0.11700
C32         C  0.23635275  0.83666553  0.50407239     0.03000
C33         C  0.27123371  0.85411460  0.48497882    -0.11100
H34         H  0.29774549  0.80516310  0.55476974     0.08600
H35         H  0.12034408  0.72717599  0.97878566     0.06100
H36         H  0.28091459  0.87612500  0.45494398     0.05900
C37         C  0.76333291  0.52071897  0.47364922     0.03000
C38         C  0.73042947  0.50531299  0.50417400    -0.13200
C39         C  0.78374619  0.55582719  0.06284298     0.00500
C40         C  0.79499682  0.59045234  0.04659913    -0.11700
C41         C  0.77377230  0.57914011  0.49821042     0.03000
C42         C  0.78454603  0.55741020  0.47171096    -0.11100
H43         H  0.71423136  0.47707886  0.50777400     0.08600
H44         H  0.77840625  0.60093204  0.05713099     0.06100
H45         H  0.81035507  0.56896776  0.45124008     0.05900
C46         C  0.58468928  0.84045939  0.98178300     0.03000
C47         C  0.61920046  0.85676534  0.95938171    -0.13200
C48         C  0.60894797  0.75979701  0.47665743     0.00500
C49         C  0.59187593  0.72567310  0.45371025    -0.11700
C50         C  0.55586121  0.70296582  0.46238746     0.03000
C51         C  0.53649807  0.71523419  0.49488921    -0.11100
H52         H  0.63711882  0.88409670  0.96989925     0.08600
H53         H  0.60683316  0.71657830  0.42866912     0.06100
H54         H  0.50864058  0.69835849  0.50141632     0.05900
O55         O  0.99321994  0.03345692  0.49290312    -0.88500
C56         C  0.06802733  0.05381996  0.96683962     0.87500
Mg57       Mg  0.93849902  0.99582345  0.48791697     1.58100
O58         O  0.06481172  0.00378137  0.47948384    -0.88200
O59         O  0.04120185  0.05492819  0.43818812    -0.75600
C60         C  0.92974594  0.86206148  0.89520469     0.92600
O61         O  0.98885765  0.03661584  0.96488626    -0.75400
O62         O  0.91400238  0.87887241  0.90001742    -0.82900
Mg63       Mg  0.03170895  0.08237350  0.90944524     1.58000
C64         C  0.07076169  0.91553153  0.45606222     0.92500
O65         O  0.05095610  0.11008846  0.53814926    -0.81100
H66         H  0.07850877  0.01445131  0.39326558    -0.06500
C67         C  0.00738837  0.94710472  0.95973949     0.87400
O68         O  0.94905957  0.96423044  0.41701623    -0.75600
O69         O  0.06476633  0.06164445  0.91611499    -0.88400
O70         O  0.08378405  0.94458450  0.48391042    -0.81200
C71         C  0.15478557  0.05919010  0.92288225     0.92600
C72         C  0.08293822  0.12849116  0.52238813     0.92500
Mg73       Mg  0.99862906  0.91359565  0.45646985     1.58000
O74         O  0.96132862  0.87658050  0.87674858    -0.81100
O75         O  0.03882679  0.96473584  0.40934175    -0.75400
O76         O  0.14285345  0.07716886  0.90250676    -0.81200
O77         O  0.99534440  0.10369083  0.90669013    -0.82900
O78         O  0.88314241  0.90686188  0.49327436    -0.81300
C79         C  0.06178753  0.99521631  0.42630975     0.86900
O80         O  0.96220011  0.93056315  0.46429382    -0.88400
O81         O  0.02363026  0.95530219  0.91138831    -0.88500
O82         O  0.97672328  0.94135952  0.96505942    -0.75600
Mg83       Mg  0.08313609  0.05768239  0.49755148     1.58000
O84         O  0.13717936  0.02584455  0.92349258    -0.82900
H85         H  0.99623740  0.04855962  0.40863718    -0.06700
O86         O  0.96053291  0.99321234  0.90232122    -0.88200
H87         H  0.94650347  0.98987111  0.98870161    -0.06500
H88         H  0.95862563  0.92899430  0.37567994    -0.06700
C89         C  0.96420291  0.00582918  0.95306994     0.86900
C90         C  0.00950404  0.04593632  0.44540017     0.87500
C91         C  0.95639659  0.94034965  0.41749850     0.87500
H92         H  0.01997286  0.94582353  0.99877244    -0.06600
O93         O  0.07172095  0.02799267  0.97604195    -0.75700
Mg94       Mg  0.93773939  0.93793531  0.89875015     1.58000
H95         H  0.06667414  0.06871208  0.00449038    -0.06700
C96         C  0.96247880  0.08473747  0.90290719     0.92500
O97         O  0.88050690  0.95472925  0.48098664    -0.82900
C98         C  0.86661625  0.92152371  0.47933312     0.92600
O99         O  0.10161274  0.11496158  0.51342774    -0.82900
Mg100      Mg  0.07878415  0.98947799  0.91614402     1.58200
O101        O  0.94774780  0.05431014  0.87974166    -0.81200
O102        O  0.03830165  0.89647166  0.44757990    -0.82900
C103        C  0.99967284  0.47246592  0.30888108     0.86300
C104        C  0.01611759  0.49900206  0.25778947    -0.53900
C105        C  0.99325309  0.50002769  0.22151122     0.09300
C106        C  0.95462788  0.47310572  0.23875878     0.20200
C107        C  0.97382265  0.48076020  0.34109381    -0.54600
C108        C  0.94943684  0.48037185  0.30530402     0.09400
C109        C  0.97613731  0.43733480  0.27681944    -0.54200
C110        C  0.95210104  0.43720660  0.24097517     0.09900
H111        H  0.04384756  0.51579913  0.24930977     0.14500
H112        H  0.93586095  0.47309262  0.20830926     0.00200
H113        H  0.97433977  0.48525224  0.38884406     0.14800
H114        H  0.97729695  0.41397716  0.28382857     0.14500
C115        C  0.55655177  0.02217157  0.21797536     0.86300
C116        C  0.52804990  0.00107182  0.26494038    -0.53900
C117        C  0.52150963  0.02024691  0.30555942     0.09300
C118        C  0.54546555  0.06038403  0.29629362     0.20200
C119        C  0.54541995  0.04625973  0.19033415    -0.54600
C120        C  0.53971158  0.06654624  0.23100931     0.09400
C121        C  0.58854875  0.04759939  0.25359462    -0.54200
C122        C  0.58335969  0.06793701  0.29444788     0.09900
H123        H  0.51242677  0.97258561  0.26375033     0.14500
H124        H  0.54088636  0.07638301  0.32980156     0.00200
H125        H  0.54235072  0.04755185  0.14310407     0.14800
H126        H  0.61350792  0.04957556  0.24638420     0.14500
C127        C  0.47624906  0.44002115  0.20711381     0.86300
C128        C  0.48129214  0.46615679  0.25646472    -0.53900
C129        C  0.50616980  0.47272516  0.29574500     0.09300
C130        C  0.52359649  0.45088082  0.28301775     0.20200
C131        C  0.51289358  0.45397758  0.17843049    -0.54600
C132        C  0.53786111  0.45965704  0.21791525     0.09400
C133        C  0.46874543  0.40677718  0.23985429    -0.54200
C134        C  0.49351052  0.41190246  0.27938085     0.09900
H135        H  0.46847517  0.48118687  0.25667406     0.14500
H136        H  0.54347600  0.45555860  0.31550367     0.00200
H137        H  0.51847412  0.45847652  0.13094793     0.14800
H138        H  0.44629029  0.38114567  0.23094510     0.14500
C139        C  0.64709365  0.78284648  0.46868607    -0.01400
C140        C  0.68330324  0.83422834  0.89976107    -0.09500
C141        C  0.71689677  0.84794480  0.87634698    -0.18300
C142        C  0.72037239  0.82706890  0.46054672     0.04100
C143        C  0.69858527  0.84097684  0.45410065     0.18300
C144        C  0.66230961  0.81877233  0.45729423    -0.19700
C145        C  0.71314950  0.87705442  0.44612930    -0.21000
C146        C  0.74900143  0.89985955  0.44679497    -0.19500
C147        C  0.77114644  0.88700147  0.45388663     0.19700
C148        C  0.75708086  0.85026418  0.45875748     0.01800
C149        C  0.78034894  0.83825271  0.46252542    -0.14300
C150        C  0.81578627  0.86168491  0.46577690    -0.12000
C151        C  0.82959186  0.89801912  0.46551222     0.01300
C152        C  0.80720690  0.91058435  0.45767114    -0.24200
H153        H  0.66983054  0.80771612  0.91680038     0.09300
H154        H  0.72734907  0.83101953  0.87721238     0.12900
H155        H  0.64588389  0.82957983  0.45173346     0.11600
H156        H  0.69665673  0.88781507  0.44100081     0.12800
H157        H  0.75944655  0.92774629  0.44228637     0.11900
H158        H  0.77344023  0.85017462  0.82515018     0.08900
H159        H  0.83524308  0.87919968  0.81090404     0.12200
H160        H  0.81761078  0.93860201  0.45659251     0.14100
C161        C  0.56213792  0.99707526  0.17704994    -0.01400
C162        C  0.55361293  0.99129316  0.11650433    -0.09500
C163        C  0.55519279  0.96495111  0.08334124    -0.18300
C164        C  0.56560127  0.94332116  0.10923380     0.04100
C165        C  0.57494927  0.94969479  0.16992624     0.18300
C166        C  0.57313266  0.97607461  0.20269985    -0.19700
C167        C  0.58568956  0.92939519  0.19808784    -0.21000
C168        C  0.58770671  0.90303979  0.16720987    -0.19500
C169        C  0.57878304  0.89598873  0.10734228     0.19700
C170        C  0.56722039  0.91572299  0.07746893     0.01800
C171        C  0.55817971  0.90707927  0.01709502    -0.14300
C172        C  0.56183279  0.88106199  0.98727197    -0.12000
C173        C  0.57410028  0.86242934  0.01659062     0.01300
C174        C  0.58218242  0.86981649  0.07683517    -0.24200
H175        H  0.54459994  0.00613415  0.09433693     0.09300
H176        H  0.54763312  0.96180216  0.03764719     0.12900
H177        H  0.57951596  0.97977929  0.24940846     0.11600
H178        H  0.59276299  0.93404263  0.24443747     0.12800
H179        H  0.59645301  0.88811503  0.19035469     0.11900
H180        H  0.54878188  0.92037470  0.99158044     0.08900
H181        H  0.52264983  0.78082739  0.46807855     0.12200
H182        H  0.59238779  0.85599778  0.09937332     0.14100
C183        C  0.52130236  0.50637776  0.32923487    -0.01400
C184        C  0.54253386  0.53730464  0.29718412    -0.09500
C185        C  0.54702987  0.56924750  0.31725780    -0.18300
C186        C  0.53065635  0.57142769  0.37091992     0.04100
C187        C  0.51232670  0.54084868  0.40670374     0.18300
C188        C  0.50706242  0.50843752  0.38498708    -0.19700
C189        C  0.49857137  0.54279517  0.46290559    -0.21000
C190        C  0.50289121  0.57449227  0.48427671    -0.19500
C191        C  0.51942086  0.60467440  0.44875501     0.19700
C192        C  0.53220874  0.60298975  0.39052867     0.01800
C193        C  0.54553287  0.63282087  0.35392304    -0.14300
C194        C  0.54939767  0.66408671  0.37618961    -0.12000
C195        C  0.54059791  0.66710654  0.43583329     0.01300
C196        C  0.52416002  0.63678839  0.47129558    -0.24200
H197        H  0.55350684  0.53623598  0.25385894     0.09300
H198        H  0.56317488  0.59179537  0.28952174     0.12900
H199        H  0.49037649  0.48456736  0.40985420     0.11600
H200        H  0.48481896  0.51976656  0.49090459     0.12800
H201        H  0.49274434  0.57525589  0.52855162     0.11900
H202        H  0.55342976  0.63280539  0.30789234     0.08900
H203        H  0.56144233  0.68687634  0.34750900     0.12200
H204        H  0.51694817  0.63865638  0.51730995     0.14100
C205        C  0.79753335  0.61802068  0.49895018    -0.01400
C206        C  0.82122639  0.63543999  0.45137404    -0.09500
C207        C  0.84400826  0.67173881  0.45274405    -0.18300
C208        C  0.86406856  0.71640258  0.95397740     0.04100
C209        C  0.84511164  0.70466792  0.00916037     0.18300
C210        C  0.83228639  0.67012777  0.02853374    -0.19700
C211        C  0.83955922  0.72766523  0.04480714    -0.21000
C212        C  0.85290733  0.76221406  0.02710410    -0.19500
C213        C  0.87327694  0.77499542  0.97447904     0.19700
C214        C  0.87958607  0.75231109  0.93771856     0.01800
C215        C  0.89319692  0.74866330  0.46244639    -0.14300
C216        C  0.91368295  0.78516120  0.46616298    -0.12000
C217        C  0.91119631  0.82437450  0.90941524     0.01300
C218        C  0.88833990  0.81056209  0.95915562    -0.24200
H219        H  0.82195729  0.62109122  0.41229325     0.09300
H220        H  0.86111711  0.68319704  0.41425033     0.12900
H221        H  0.81925856  0.66192880  0.07191455     0.11600
H222        H  0.82477624  0.71887098  0.08662817     0.12800
H223        H  0.84808918  0.77931563  0.05561305     0.11900
H224        H  0.89958077  0.73632867  0.42646989     0.08900
H225        H  0.93402214  0.79917418  0.43247524     0.12200
H226        H  0.88352343  0.82781448  0.98729161     0.14100
C227        C  0.57468940  0.47153045  0.19924217    -0.01400
C228        C  0.60208499  0.49242772  0.23713828    -0.09500
C229        C  0.63663280  0.50394759  0.21971338    -0.18300
C230        C  0.64513911  0.49500773  0.16322911     0.04100
C231        C  0.61722400  0.47319170  0.12545277     0.18300
C232        C  0.58262904  0.46174016  0.14362162    -0.19700
C233        C  0.62397156  0.46320144  0.06930025    -0.21000
C234        C  0.65790044  0.47508643  0.04904216    -0.19500
C235        C  0.68610073  0.49740265  0.08424280     0.19700
C236        C  0.68020537  0.50744295  0.14219181     0.01800
C237        C  0.70975259  0.53044099  0.17543781    -0.14300
C238        C  0.74346144  0.54430181  0.15086089    -0.12000
C239        C  0.74900438  0.53508335  0.09315880     0.01300
C240        C  0.72021560  0.51092442  0.06069741    -0.24200
H241        H  0.59698094  0.50066329  0.28014805     0.09300
H242        H  0.65615649  0.52011195  0.25125002     0.12900
H243        H  0.56178116  0.44487517  0.11426948     0.11600
H244        H  0.60282630  0.44642188  0.04038703     0.12800
H245        H  0.59007047  0.47077849  0.49650018     0.11900
H246        H  0.70764425  0.53921167  0.21973345     0.08900
H247        H  0.76537584  0.56338873  0.17625125     0.12200
H248        H  0.65201343  0.49075519  0.49273660     0.14100
C249        C  0.77850440  0.50050084  0.44629022    -0.01400
C250        C  0.79150107  0.48512978  0.48265461    -0.09500
C251        C  0.81624037  0.47714014  0.46015341    -0.18300
C252        C  0.82919800  0.48476789  0.40027956     0.04100
C253        C  0.81364092  0.49748843  0.36238310     0.18300
C254        C  0.78859766  0.50506659  0.38548634    -0.19700
C255        C  0.82472910  0.50468276  0.30243357    -0.21000
C256        C  0.85227973  0.50146772  0.28001055    -0.19500
C257        C  0.86973272  0.49115221  0.31691566     0.19700
C258        C  0.85798283  0.48189034  0.37724282     0.01800
C259        C  0.87647370  0.47150055  0.41227071    -0.14300
C260        C  0.90572820  0.47120118  0.38899422    -0.12000
C261        C  0.91810222  0.48133986  0.32985813     0.01300
C262        C  0.89934744  0.49083454  0.29402507    -0.24200
H263        H  0.78449229  0.48172741  0.52980069     0.09300
H264        H  0.82592697  0.46653501  0.49136901     0.12900
H265        H  0.77894241  0.51725867  0.35709401     0.11600
H266        H  0.81268007  0.51391382  0.27301517     0.12800
H267        H  0.86063677  0.50808460  0.23375238     0.11900
H268        H  0.86908392  0.46366912  0.45811605     0.08900
H269        H  0.91832657  0.46240141  0.41784247     0.12200
H270        H  0.90816966  0.49892770  0.24844726     0.14100
C271        C  0.21300025  0.84844213  0.48407150    -0.01400
C272        C  0.17601634  0.82518349  0.91957425    -0.09500
C273        C  0.16426334  0.84715359  0.90389921    -0.18300
C274        C  0.16792780  0.87166414  0.45190990     0.04100
C275        C  0.15529542  0.83536857  0.45845700     0.18300
C276        C  0.17796573  0.82410492  0.47294009    -0.19700
C277        C  0.11985976  0.81063944  0.45295045    -0.21000
C278        C  0.09631952  0.82139473  0.44482278    -0.19500
C279        C  0.10785562  0.85704825  0.44013344     0.19700
C280        C  0.14402603  0.88251298  0.44046203     0.01800
C281        C  0.15458305  0.91796655  0.43203842    -0.14300
C282        C  0.13020032  0.92814764  0.43158489    -0.12000
C283        C  0.09463379  0.90337647  0.43836481     0.01300
C284        C  0.08344596  0.86766029  0.43877797    -0.24200
H285        H  0.20247215  0.83709018  0.93401152     0.09300
H286        H  0.18272926  0.87487411  0.90704380     0.12900
H287        H  0.16805422  0.79628504  0.47673836     0.11600
H288        H  0.11008389  0.78289202  0.45762739     0.12800
H289        H  0.06885099  0.80177080  0.44371321     0.11900
H290        H  0.16517371  0.90590867  0.87339503     0.08900
H291        H  0.13980722  0.94047307  0.85742411     0.12200
H292        H  0.05590230  0.84832884  0.44319205     0.14100
C293        C  0.00713774  0.52699862  0.17344041    -0.01400
C294        C  0.00701490  0.55805299  0.18298122    -0.09500
C295        C  0.03032270  0.58864357  0.15119583    -0.18300
C296        C  0.05482225  0.58917062  0.10872418     0.04100
C297        C  0.05249486  0.55677735  0.09501589     0.18300
C298        C  0.02910889  0.52628147  0.12770623    -0.17100
C299        C  0.07468316  0.55541470  0.05073484    -0.21000
C300        C  0.09977353  0.58568783  0.02087515    -0.19500
C301        C  0.10427633  0.61845707  0.03583288     0.19700
C302        C  0.08196527  0.62064102  0.08036822     0.01800
C303        C  0.08860045  0.65437563  0.09608403    -0.14300
C304        C  0.11523853  0.68437752  0.06745973    -0.12000
C305        C  0.13626584  0.68228278  0.02147769     0.01300
C306        C  0.13092285  0.64906016  0.00661118    -0.24200
H307        H  0.99064226  0.55939955  0.21839616     0.09300
H308        H  0.02926341  0.61173632  0.16203435     0.12900
H309        H  0.02964242  0.50245495  0.12040263     0.11600
H310        H  0.07278831  0.53075060  0.03934969     0.12800
H311        H  0.11636284  0.58353950  0.98682102     0.11900
H312        H  0.07380050  0.65846056  0.13079774     0.08900
H313        H  0.11901432  0.70961241  0.08073739     0.12200
H314        H  0.14680198  0.64689490  0.97115851     0.14100
C315        C  0.48864067  0.00178397  0.34259927    -0.01400
C316        C  0.48850409  0.99566175  0.40362822    -0.09500
C317        C  0.45790568  0.96974562  0.43353617    -0.18300
C318        C  0.42675467  0.94849333  0.40257159     0.04100
C319        C  0.42720049  0.95581571  0.34106434     0.18300
C320        C  0.45744049  0.98263413  0.31261204    -0.19700
C321        C  0.39798751  0.93517626  0.30701063    -0.21000
C322        C  0.36833500  0.90686834  0.33215702    -0.19500
C323        C  0.36663285  0.89895416  0.39253885     0.19700
C324        C  0.39544442  0.91977699  0.42924913     0.01800
C325        C  0.39112977  0.91098062  0.49067421    -0.14300
C326        C  0.35897274  0.88394670  0.51468760    -0.12000
C327        C  0.33051440  0.86427172  0.47803224     0.01300
C328        C  0.33542535  0.87110180  0.41660407    -0.24200
H329        H  0.51250940  0.00952635  0.42740740     0.09300
H330        H  0.45971313  0.96558100  0.48005607     0.12900
H331        H  0.45755120  0.98681124  0.26514087     0.11600
H332        H  0.39829697  0.94054518  0.26007548     0.12800
H333        H  0.34629809  0.89128128  0.30419576     0.11900
H334        H  0.41168055  0.92567816  0.52149269     0.08900
H335        H  0.27203209  0.78566505  0.00963113     0.12200
H336        H  0.31356630  0.85623814  0.38785680     0.14100
C337        C  0.36622045  0.18521645  0.02907037    -0.01400
C338        C  0.35619698  0.15330531  0.00013826    -0.09500
C339        C  0.32158059  0.13053303  0.98490569    -0.18300
C340        C  0.29581362  0.13908736  0.99831233     0.04100
C341        C  0.30621983  0.17129684  0.02853225     0.18300
C342        C  0.34091488  0.19368667  0.04383750    -0.19700
C343        C  0.28210905  0.18143424  0.04244935    -0.21000
C344        C  0.24794553  0.16083665  0.02527584    -0.19500
C345        C  0.23690902  0.12931886  0.99456450     0.19700
C346        C  0.26033989  0.11741089  0.98187035     0.01800
C347        C  0.24718024  0.08456192  0.95283918    -0.14300
C348        C  0.21258511  0.06509267  0.93551431    -0.12000
C349        C  0.19032108  0.07798865  0.94564187     0.01300
C350        C  0.20255228  0.10987877  0.97578389    -0.24200
H351        H  0.37538601  0.14633583  0.98791253     0.09300
H352        H  0.31592767  0.10679322  0.96168833     0.12900
H353        H  0.36440635  0.19122360  0.58390285     0.11600
H354        H  0.31254446  0.19481163  0.59193287     0.12800
H355        H  0.24964406  0.16737031  0.58937912     0.11900
H356        H  0.26299237  0.07331390  0.94272983     0.08900
H357        H  0.20350527  0.04036489  0.91242263     0.12200
H358        H  0.18517718  0.11964511  0.98456558     0.14100
C359        C  0.52974214  0.09250342  0.21330102    -0.01400
C360        C  0.50809520  0.09930651  0.25063772    -0.09500
C361        C  0.49831958  0.12312063  0.23404239    -0.18300
C362        C  0.50998358  0.14132118  0.17908945     0.04100
C363        C  0.53230222  0.13476684  0.14170684     0.18300
C364        C  0.54184767  0.11070248  0.15889760    -0.19700
C365        C  0.54482612  0.15208531  0.08695890    -0.21000
C366        C  0.53513240  0.17518399  0.06775103    -0.19500
C367        C  0.51257322  0.18173064  0.10262067     0.19700
C368        C  0.49995138  0.16523835  0.15921443     0.01800
C369        C  0.47711828  0.17273987  0.19239873    -0.14300
C370        C  0.46589390  0.19396913  0.16898138    -0.12000
C371        C  0.47740264  0.20915380  0.11229469     0.01300
C372        C  0.50146963  0.20356221  0.08002169    -0.24200
H373        H  0.49798043  0.08560540  0.29256783     0.09300
H374        H  0.48137279  0.12656587  0.26501397     0.12900
H375        H  0.55913152  0.10644043  0.12980171     0.11600
H376        H  0.56198520  0.14740076  0.05829553     0.12800
H377        H  0.54495470  0.18761624  0.02469640     0.11900
H378        H  0.46655754  0.16160633  0.23577505     0.08900
H379        H  0.44682337  0.19735677  0.19433109     0.12200
H380        H  0.50989189  0.21445613  0.03561464     0.14100
C381        C  0.47286241  0.23568393  0.47028698    -0.01400
C382        C  0.46249784  0.23076462  0.41105197    -0.09500
C383        C  0.46874112  0.25911633  0.37592437    -0.18300
C384        C  0.48514855  0.29365478  0.39936003     0.04100
C385        C  0.49744940  0.29882633  0.45836103     0.18300
C386        C  0.49131651  0.26998311  0.49305082    -0.19700
C387        C  0.51427629  0.33254983  0.48340373    -0.21000
C388        C  0.51800517  0.36102211  0.45219288    -0.19500
C389        C  0.50479688  0.35663162  0.39510036     0.19700
C390        C  0.48861483  0.32295292  0.36748270     0.01800
C391        C  0.47569019  0.31994384  0.30991673    -0.14300
C392        C  0.47779769  0.34870133  0.28191039    -0.12000
C393        C  0.49282799  0.38178756  0.30975260     0.01300
C394        C  0.50696471  0.38557468  0.36609465    -0.24200
H395        H  0.44770760  0.20446976  0.39287252     0.09300
H396        H  0.45921412  0.25292992  0.33129675     0.12900
H397        H  0.49877524  0.27394200  0.53922609     0.11600
H398        H  0.52399995  0.33684040  0.52810639     0.12800
H399        H  0.53064333  0.38657904  0.47350920     0.11900
H400        H  0.46344262  0.29555800  0.28544314     0.08900
H401        H  0.46770267  0.34484074  0.23763726     0.12200
H402        H  0.51870631  0.41080501  0.38842468     0.14100
C403        C  0.16807112  0.35033942  0.51768569    -0.01400
C404        C  0.18995381  0.33788709  0.50009196    -0.09500
C405        C  0.17718534  0.30196862  0.49685825    -0.18300
C406        C  0.14193343  0.27728632  0.51140773     0.04100
C407        C  0.17456461  0.31476134  0.85233812     0.18300
C408        C  0.19420046  0.35050419  0.86603818    -0.19700
C409        C  0.13831404  0.29742431  0.85817845    -0.21000
C410        C  0.11824018  0.26128552  0.85214767    -0.19500
C411        C  0.13402191  0.24163768  0.84123579     0.19700
C412        C  0.12797868  0.24035762  0.51135885     0.01800
C413        C  0.14823031  0.22503545  0.49781303    -0.14300
C414        C  0.13361607  0.18877895  0.50050546    -0.12000
C415        C  0.09842103  0.16670002  0.51637764     0.01300
C416        C  0.11340178  0.20495814  0.84285832    -0.24200
H417        H  0.21714394  0.35603958  0.48902665     0.09300
H418        H  0.19563937  0.29440449  0.48319994     0.12900
H419        H  0.18066482  0.36329591  0.88300757     0.11600
H420        H  0.12544362  0.31179112  0.86940943     0.12800
H421        H  0.09029259  0.24849834  0.85871307     0.11900
H422        H  0.17555461  0.24035337  0.48579988     0.08900
H423        H  0.15005654  0.17806607  0.49074452     0.12200
H424        H  0.08563666  0.19254103  0.85166342     0.14100
C425        C  0.44822485  0.43608966  0.16536879    -0.01400
C426        C  0.41288086  0.41352212  0.18080014    -0.09500
C427        C  0.38673851  0.41450118  0.15093301    -0.18300
C428        C  0.39477785  0.43884411  0.10484043     0.04100
C429        C  0.43039606  0.46142448  0.08832549     0.18300
C430        C  0.45653207  0.46031361  0.11908167    -0.19700
C431        C  0.43975082  0.48535204  0.04169172    -0.21000
C432        C  0.41446644  0.48702835  0.01063186    -0.19500
C433        C  0.37914220  0.46555152  0.02643341     0.19700
C434        C  0.36882616  0.44161657  0.07461245     0.01800
C435        C  0.33295171  0.42149841  0.09030697    -0.14300
C436        C  0.30834812  0.42373411  0.05775370    -0.12000
C437        C  0.31844772  0.44613182  0.00875775     0.01300
C438        C  0.35395713  0.46731396  0.99366102    -0.24200
H439        H  0.40514191  0.39577625  0.21801972     0.09300
H440        H  0.36039595  0.39610285  0.16568361     0.12900
H441        H  0.48347666  0.47938438  0.10810201     0.11600
H442        H  0.46683651  0.50260240  0.02856182     0.12800
H443        H  0.35399714  0.50857762  0.52079759     0.11900
H444        H  0.32297800  0.40339657  0.12708831     0.08900
H445        H  0.28100469  0.40672712  0.06938102     0.12200
H446        H  0.29152025  0.48513177  0.52429595     0.14100
C447        C  0.14893517  0.45005711  0.50727793    -0.01400
C448        C  0.16081117  0.48175595  0.47751025    -0.09500
C449        C  0.13728691  0.48885312  0.45085519    -0.18300
C450        C  0.10095033  0.46403416  0.45221370     0.04100
C451        C  0.08903136  0.43277110  0.48489108     0.18300
C452        C  0.11271387  0.42670252  0.51327842    -0.19700
C453        C  0.05364666  0.40680311  0.48673953    -0.21000
C454        C  0.02984331  0.41059391  0.45512017    -0.19500
C455        C  0.04060859  0.44069317  0.42138427     0.19700
C456        C  0.07612810  0.46824915  0.42065408     0.01800
C457        C  0.08513090  0.49855362  0.38787124    -0.14300
C458        C  0.06057033  0.50050489  0.35437815    -0.12000
C459        C  0.02599972  0.47206514  0.35074036     0.01300
C460        C  0.01609910  0.44297692  0.38738377    -0.24200
H461        H  0.18845071  0.50028970  0.47198212     0.09300
H462        H  0.14841285  0.51326048  0.42711254     0.12900
H463        H  0.10290513  0.40241068  0.53741388     0.11600
H464        H  0.04441643  0.38284826  0.51153246     0.12800
H465        H  0.00284262  0.38953444  0.45634852     0.11900
H466        H  0.11105158  0.52129866  0.38742331     0.08900
H467        H  0.06919357  0.52492724  0.33195864     0.12200
H468        H  0.98929394  0.42147645  0.38825150     0.14100
C469        C  0.81991933  0.15029110  0.00680216    -0.01400
C470        C  0.81184568  0.11663538  0.02232220    -0.09500
C471        C  0.83507710  0.10544995  0.00885989    -0.18300
C472        C  0.86731901  0.12769373  0.97889987     0.04100
C473        C  0.90194857  0.18240132  0.57935827     0.18300
C474        C  0.88978020  0.20533646  0.57204269    -0.19700
C475        C  0.93719742  0.19635109  0.58970295    -0.21000
C476        C  0.95022780  0.17445631  0.59599168    -0.19500
C477        C  0.92861526  0.13811949  0.58988498     0.19700
C478        C  0.89159758  0.11712999  0.96313443     0.01800
C479        C  0.88518746  0.08332033  0.97534350    -0.14300
C480        C  0.90882419  0.07355520  0.95665156    -0.12000
C481        C  0.93988430  0.09720962  0.92644274     0.01300
C482        C  0.94323778  0.11702160  0.59164300    -0.24200
H483        H  0.78747862  0.09892509  0.04553809     0.09300
H484        H  0.82692792  0.07924117  0.02255751     0.12900
H485        H  0.90856259  0.23319486  0.57080737     0.11600
H486        H  0.95484173  0.22444182  0.59311804     0.12800
H487        H  0.97767327  0.18613360  0.60392841     0.11900
H488        H  0.86190542  0.06352573  0.99818910     0.08900
H489        H  0.90267257  0.04712515  0.96554752     0.12200
H490        H  0.97088281  0.12930831  0.59846503     0.14100
C491        C  0.92275190  0.40391485  0.21637583    -0.01400
C492        C  0.90466001  0.37429186  0.25299212    -0.09500
C493        C  0.87764577  0.34245056  0.23118153    -0.18300
C494        C  0.86804401  0.33874112  0.17102406     0.04100
C495        C  0.88631631  0.36888478  0.13392588     0.18300
C496        C  0.91279628  0.40123943  0.15714069    -0.19700
C497        C  0.87880097  0.36621450  0.07339987    -0.21000
C498        C  0.85470714  0.33407077  0.04836176    -0.19500
C499        C  0.83664249  0.30382125  0.08341590     0.19700
C500        C  0.84209131  0.30593916  0.14573212     0.01800
C501        C  0.82208942  0.27482493  0.17943105    -0.14300
C502        C  0.79988511  0.24261896  0.15170619    -0.12000
C503        C  0.79645008  0.24027184  0.08976731     0.01300
C504        C  0.81427578  0.27117065  0.05609374    -0.24200
H505        H  0.91143043  0.37579368  0.29918558     0.09300
H506        H  0.86539098  0.32093469  0.26214961     0.12900
H507        H  0.92663454  0.42397752  0.12847058     0.11600
H508        H  0.89247489  0.38895043  0.04473848     0.12800
H509        H  0.85049141  0.33278152  0.00093061     0.11900
H510        H  0.82376964  0.27436073  0.22714472     0.08900
H511        H  0.78683244  0.21903001  0.17844369     0.12200
H512        H  0.81226412  0.26943911  0.00799318     0.14100
C513        C  0.76594799  0.21604669  0.48640173    -0.01400
C514        C  0.73406158  0.19793355  0.51833988    -0.09500
C515        C  0.70281699  0.17612985  0.48907193    -0.18300
C516        C  0.70250549  0.17104930  0.42646457     0.04100
C517        C  0.73490004  0.19016420  0.39424658     0.18300
C518        C  0.76593068  0.21248284  0.42417218    -0.19700
C519        C  0.73649613  0.18565121  0.33251517    -0.21000
C520        C  0.70696542  0.16177834  0.30216673    -0.19500
C521        C  0.67479787  0.14200384  0.33245742     0.19700
C522        C  0.67173479  0.14681904  0.39478441     0.01800
C523        C  0.63813459  0.12671079  0.42230161    -0.14300
C524        C  0.60928439  0.10210123  0.38963958    -0.12000
C525        C  0.61294611  0.09632832  0.32881422     0.01300
C526        C  0.64580334  0.11700371  0.30057586    -0.24200
H527        H  0.73355057  0.19926555  0.56659273     0.09300
H528        H  0.67950416  0.16240116  0.51679145     0.12900
H529        H  0.79058161  0.22541526  0.39933570     0.11600
H530        H  0.76100628  0.20011311  0.30760666     0.12800
H531        H  0.70942055  0.15846549  0.25457467     0.11900
H532        H  0.63347119  0.12931336  0.46909256     0.08900
H533        H  0.58423790  0.08672175  0.41251227     0.12200
H534        H  0.64890644  0.11349164  0.25323744     0.14100
C535        C  0.73517324  0.14946675  0.02145417     0.03000
C536        C  0.75959260  0.13938527  0.00866487    -0.13200
C537        C  0.84158572  0.21762649  0.55718914     0.00500
C538        C  0.86064793  0.25240099  0.57827570    -0.11700
C539        C  0.85131428  0.27724800  0.56628392     0.03000
C540        C  0.74673390  0.18302834  0.04701767    -0.11100
H541        H  0.75119673  0.11412604  0.98793404     0.08600
H542        H  0.88331090  0.26070125  0.60440553     0.06100
H543        H  0.72830369  0.19120473  0.05768306     0.05900
C544        C  0.24701295  0.45299662  0.93520014     0.03000
C545        C  0.27512027  0.46136446  0.97193024    -0.13200
C546        C  0.22530301  0.44432824  0.56823884     0.00500
C547        C  0.21321390  0.40913145  0.55470684    -0.11700
C548        C  0.25055815  0.40412769  0.89191134     0.03000
C549        C  0.23700271  0.42613404  0.89273496    -0.11100
H550        H  0.28289805  0.48166872  0.00559607     0.08600
H551        H  0.22781489  0.39754496  0.56878970     0.06100
H552        H  0.21611858  0.42043371  0.86346540     0.05900
C553        C  0.45657350  0.15967207  0.57104482     0.03000
C554        C  0.42133120  0.14625392  0.58598655    -0.13200
C555        C  0.40320450  0.16088173  0.56281974     0.00500
C556        C  0.41774469  0.24612397  0.02989150    -0.11700
C557        C  0.45223299  0.27120173  0.04343855     0.03000
C558        C  0.47438263  0.18930094  0.53322363    -0.11100
H559        H  0.40765861  0.12345841  0.61456347     0.08600
H560        H  0.40203805  0.25441618  0.00850702     0.06100
H561        H  0.50147316  0.19972746  0.52074114     0.05900
C562        C  0.21638524  0.75655522  0.93645206     0.03000
C563        C  0.19548726  0.72552320  0.97023242    -0.13200
C564        C  0.24534764  0.79624887  0.56119887     0.00500
C565        C  0.22388811  0.80817843  0.54256497    -0.11700
C566        C  0.16751015  0.76576786  0.93389530     0.03000
C567        C  0.20174176  0.77571116  0.91814911    -0.11100
H568        H  0.20652134  0.71053872  0.98496822     0.08600
H569        H  0.19695711  0.79483385  0.55818030     0.06100
H570        H  0.21763075  0.79915020  0.89179601     0.05900
C571        C  0.83655292  0.56200380  0.01511884     0.03000
C572        C  0.80456911  0.54144574  0.04675385    -0.13200
C573        C  0.71906506  0.52704203  0.53073560     0.00500
C574        C  0.74069800  0.56356003  0.52614396    -0.11700
C575        C  0.82639208  0.61084201  0.01428206     0.03000
C576        C  0.84710567  0.59647385  0.99986538    -0.11100
H577        H  0.79577859  0.51455917  0.05793996     0.08600
H578        H  0.73147611  0.57993697  0.54519057     0.06100
H579        H  0.87180768  0.61217561  0.97605175     0.05900
C580        C  0.55373985  0.74998788  0.51777086     0.03000
C581        C  0.58972432  0.77156573  0.50877452    -0.13200
C582        C  0.63074151  0.83797426  0.92455086     0.00500
C583        C  0.60715325  0.80268318  0.91167149    -0.11700
C584        C  0.57294347  0.78534246  0.93464502     0.03000
C585        C  0.56151248  0.80431623  0.97017712    -0.11100
H586        H  0.60284345  0.79786113  0.52736416     0.08600
H587        H  0.61547512  0.78815739  0.88339292     0.06100
H588        H  0.53498601  0.79137539  0.98772966     0.05900
O589        O  0.01360470  0.05347975  0.82733518    -0.88500
C590        C  0.05228670  0.02954568  0.62227750     0.87500
Mg591      Mg  0.95879584  0.01825798  0.82348381     1.58100
O592        O  0.07793643  0.01431529  0.83597552    -0.88200
O593        O  0.06081385  0.06670488  0.77470015    -0.75600
C594        C  0.92654697  0.84219979  0.51088144     0.92600
O595        O  0.97099618  0.00808147  0.62949022    -0.75400
O596        O  0.91087098  0.85789111  0.52829461    -0.82900
Mg597      Mg  0.01133720  0.05740069  0.57861317     1.58000
C598        C  0.07118149  0.91810534  0.85048436     0.92500
O599        O  0.07513489  0.13223747  0.86243369    -0.81100
H600        H  0.09134227  0.01692047  0.74936163    -0.06500
C601        C  0.00067034  0.92444241  0.59228400     0.87400
O602        O  0.96608640  0.98066269  0.76174567    -0.75600
O603        O  0.04841840  0.04097322  0.57545658    -0.88400
O604        O  0.08923049  0.95005299  0.86689524    -0.81200
C605        C  0.14381885  0.04670142  0.55834662     0.92600
C606        C  0.10732880  0.14609197  0.84790444     0.92500
Mg607      Mg  0.00483686  0.92576821  0.83002766     1.58000
O608        O  0.95793271  0.85873677  0.49096335    -0.81100
O609        O  0.04837208  0.97083703  0.77408731    -0.75400
O610        O  0.13112412  0.06573899  0.54761561    -0.81200
O611        O  0.97294044  0.07540688  0.58145972    -0.82900
O612        O  0.89337775  0.93030388  0.84127685    -0.81300
C613        C  0.07365640  0.00140303  0.78535893     0.86900
O614        O  0.97158340  0.94589037  0.82170983    -0.88400
O615        O  0.01569196  0.93621455  0.54365626    -0.88500
O616        O  0.96996274  0.91765284  0.60304268    -0.75600
Mg617      Mg  0.09950028  0.06975742  0.84169249     1.58000
O618        O  0.12547731  0.01351446  0.55646521    -0.82900
H619        H  0.01809659  0.06294849  0.73981397    -0.06700
O620        O  0.94478055  0.96860530  0.56022722    -0.88200
H621        H  0.93033160  0.95898199  0.64639493    -0.06500
H622        H  0.97035674  0.93951477  0.73311265    -0.06700
C623        C  0.94755185  0.97769966  0.61311632     0.86900
C624        C  0.03025570  0.06145712  0.77929081     0.87500
C625        C  0.96892459  0.95427611  0.77092158     0.87500
H626        H  0.01468167  0.92156231  0.62749610    -0.06600
O627        O  0.05809134  0.00457153  0.62243548    -0.75700
Mg628      Mg  0.92884113  0.91501759  0.54369825     1.58000
H629        H  0.04943383  0.04025014  0.66422420    -0.06700
C630        C  0.94078427  0.06052336  0.57079574     0.92500
O631        O  0.90085949  0.98200741  0.81794156    -0.82900
C632        C  0.88173711  0.94894209  0.82283338     0.92600
O633        O  0.12203638  0.12823048  0.84482109    -0.82900
Mg634      Mg  0.06905656  0.97449487  0.54923162     1.58200
O635        O  0.92405221  0.02975256  0.54825385    -0.81200
O636        O  0.03919608  0.90370463  0.83926917    -0.82900
C637        C  0.08071719  0.52535582  0.82879956     0.86300
C638        C  0.10055157  0.55809949  0.78983775    -0.53900
C639        C  0.08040414  0.56606909  0.75873255     0.09300
C640        C  0.04081564  0.53939119  0.76819159     0.20200
C641        C  0.05507764  0.53104107  0.86779348    -0.54600
C642        C  0.03349311  0.53808680  0.83694939     0.09400
C643        C  0.05750703  0.49633741  0.78430255    -0.54200
C644        C  0.03599065  0.50297099  0.75309092     0.09900
H645        H  0.12866440  0.57392150  0.78547754     0.14500
H646        H  0.02511360  0.54579677  0.74053168     0.00200
H647        H  0.05361129  0.52797885  0.91571943     0.14800
H648        H  0.05714047  0.47189083  0.77936199     0.14500
C649        C  0.50951499  0.92608173  0.72829670     0.86300
C650        C  0.47391245  0.90346902  0.75856935    -0.53900
C651        C  0.46260728  0.92104318  0.79358415     0.09300
C652        C  0.48909075  0.96121651  0.79600645     0.20200
C653        C  0.50673351  0.95448977  0.69471656    -0.54600
C654        C  0.49604130  0.97328156  0.72977422     0.09400
C655        C  0.53407082  0.94667451  0.77906864    -0.54200
C656        C  0.52398196  0.96550364  0.81431775     0.09900
H657        H  0.45818227  0.87528668  0.75150494     0.14500
H658        H  0.47993085  0.97498022  0.82616945     0.00200
H659        H  0.51451104  0.96050985  0.64826243     0.14800
H660        H  0.55860630  0.94800342  0.78435165     0.14500
C661        C  0.44423140  0.48933911  0.75658946     0.86300
C662        C  0.45907460  0.52545346  0.78476853    -0.53900
C663        C  0.48951248  0.53778719  0.81247855     0.09300
C664        C  0.50280916  0.51185379  0.81031905     0.20200
C665        C  0.47413487  0.49235821  0.71526339    -0.54600
C666        C  0.50520182  0.50395671  0.74284523     0.09400
C667        C  0.44179157  0.46542445  0.80752474    -0.54200
C668        C  0.47239482  0.47677265  0.83553746     0.09900
H669        H  0.44695529  0.54097639  0.78096661     0.14500
H670        H  0.52679486  0.52155294  0.83532588     0.00200
H671        H  0.47035689  0.48530311  0.66853591     0.14800
H672        H  0.41861695  0.44026410  0.81754780     0.14500
C673        C  0.66742923  0.85424945  0.90218501    -0.01400
C674        C  0.66852502  0.76911488  0.47500907    -0.09500
C675        C  0.70448118  0.79067380  0.47076069    -0.18300
C676        C  0.73646218  0.88280990  0.85587298     0.04100
C677        C  0.72118044  0.90379872  0.86102634     0.18300
C678        C  0.68666420  0.88919997  0.88276783    -0.19700
C679        C  0.74084659  0.93940994  0.84610464    -0.21000
C680        C  0.77592950  0.95495879  0.82955590    -0.19500
C681        C  0.79166442  0.93487670  0.82492940     0.19700
C682        C  0.77151017  0.89813723  0.83441984     0.01800
C683        C  0.78766012  0.87843304  0.82409782    -0.14300
C684        C  0.82345122  0.89508180  0.81420686    -0.12000
C685        C  0.84406070  0.93171811  0.81340436     0.01300
C686        C  0.82777008  0.95139817  0.81445627    -0.24200
H687        H  0.65748594  0.74163960  0.48509767     0.09300
H688        H  0.71898892  0.77809255  0.47769941     0.12900
H689        H  0.67488031  0.90511084  0.88467532     0.11600
H690        H  0.72945021  0.95565446  0.84981720     0.12800
H691        H  0.79097672  0.98293754  0.82137848     0.11900
H692        H  0.77210493  0.81088592  0.46349593     0.08900
H693        H  0.83234996  0.85097883  0.47045937     0.12200
H694        H  0.84338435  0.97976691  0.81216570     0.14100
C695        C  0.51924770  0.90238472  0.69242400    -0.01400
C696        C  0.51503121  0.89733927  0.63052042    -0.09500
C697        C  0.51785949  0.87084586  0.60068483    -0.18300
C698        C  0.52476334  0.84796081  0.63167604     0.04100
C699        C  0.53013647  0.85373813  0.69384932     0.18300
C700        C  0.52692150  0.88021352  0.72333468    -0.19700
C701        C  0.53817805  0.83268592  0.72661962    -0.21000
C702        C  0.54133611  0.80617098  0.69888388    -0.19500
C703        C  0.53574445  0.79939332  0.63785119     0.19700
C704        C  0.52669441  0.81970334  0.60345997     0.01800
C705        C  0.52035958  0.81096349  0.54232464    -0.14300
C706        C  0.52515635  0.78490619  0.51582815    -0.12000
C707        C  0.53609165  0.76646351  0.54917094     0.01300
C708        C  0.54049018  0.77329371  0.61053923    -0.24200
H709        H  0.50791324  0.91265325  0.60477644     0.09300
H710        H  0.51404611  0.86861820  0.55333163     0.12900
H711        H  0.52935809  0.88288827  0.77129184     0.11600
H712        H  0.54240078  0.83697832  0.77403817     0.12800
H713        H  0.54821665  0.79082534  0.72544838     0.11900
H714        H  0.51266285  0.82452218  0.51343642     0.08900
H715        H  0.55617559  0.87629002  0.94034456     0.12200
H716        H  0.54994117  0.75984277  0.63627904     0.14100
C717        C  0.50849375  0.57503240  0.83251989    -0.01400
C718        C  0.51932641  0.60104499  0.78914901    -0.09500
C719        C  0.52765629  0.63500391  0.80457267    -0.18300
C720        C  0.52545552  0.64431176  0.86454707     0.04100
C721        C  0.51695725  0.61865545  0.90905976     0.18300
C722        C  0.50806370  0.58416584  0.89271943    -0.19700
C723        C  0.51670553  0.62750322  0.96937348    -0.21000
C724        C  0.52527592  0.66134123  0.98637093    -0.19500
C725        C  0.53292144  0.68691985  0.94351349     0.19700
C726        C  0.53187379  0.67828945  0.88189321     0.01800
C727        C  0.53731902  0.70408735  0.84027623    -0.14300
C728        C  0.54669723  0.73793019  0.85877919    -0.12000
C729        C  0.55099525  0.74745688  0.91921906     0.01300
C730        C  0.54279676  0.72141634  0.96164168    -0.24200
H731        H  0.51945528  0.59443203  0.74238035     0.09300
H732        H  0.53544237  0.65333495  0.76843978     0.12900
H733        H  0.49916791  0.56405500  0.92646815     0.11600
H734        H  0.51036760  0.60826072  0.00372753     0.12800
H735        H  0.52572861  0.66749087  0.03346592     0.11900
H736        H  0.53515788  0.69908650  0.79293203     0.08900
H737        H  0.55297400  0.75759057  0.82523412     0.12200
H738        H  0.54635253  0.72857367  0.00845737     0.14100
C739        C  0.83734018  0.64661400  0.99306049    -0.01400
C740        C  0.85357695  0.65753269  0.93657918    -0.09500
C741        C  0.86679869  0.69170189  0.91734574    -0.18300
C742        C  0.84337666  0.69212038  0.50149743     0.04100
C743        C  0.81857441  0.67457990  0.54863800     0.18300
C744        C  0.79675692  0.63799348  0.54771077    -0.19700
C745        C  0.81532125  0.69366558  0.59622763    -0.21000
C746        C  0.83570653  0.73002054  0.59737644    -0.19500
C747        C  0.86081081  0.74805994  0.55221530     0.19700
C748        C  0.86582194  0.72932352  0.50458937     0.01800
C749        C  0.90236894  0.76683169  0.88746600    -0.14300
C750        C  0.91810218  0.80227291  0.87416466    -0.12000
C751        C  0.90720181  0.80353720  0.51117065     0.01300
C752        C  0.88090425  0.78481823  0.55432941    -0.24200
H753        H  0.85624454  0.63951371  0.90684125     0.09300
H754        H  0.87869525  0.69784338  0.87322009     0.12900
H755        H  0.77920760  0.62513636  0.58552063     0.11600
H756        H  0.79632564  0.68043340  0.63217643     0.12800
H757        H  0.83199913  0.74410865  0.63411235     0.11900
H758        H  0.90960672  0.75180365  0.85869360     0.08900
H759        H  0.93592168  0.81253671  0.83586406     0.12200
H760        H  0.87617397  0.79893323  0.58979648     0.14100
C761        C  0.53718983  0.50648682  0.71203510    -0.01400
C762        C  0.56942933  0.52336955  0.73996373    -0.09500
C763        C  0.59867288  0.52409148  0.71398745    -0.18300
C764        C  0.59739697  0.50853843  0.65775312     0.04100
C765        C  0.56553845  0.49297965  0.62775416     0.18300
C766        C  0.53592052  0.49153157  0.65516681    -0.19700
C767        C  0.56348865  0.47914269  0.57020749    -0.21000
C768        C  0.59249332  0.48098187  0.54150068    -0.19500
C769        C  0.62420867  0.49572086  0.57011671     0.19700
C770        C  0.62680326  0.50880493  0.62940646     0.01800
C771        C  0.65884828  0.52187704  0.65742528    -0.14300
C772        C  0.68769416  0.52440355  0.62641892    -0.12000
C773        C  0.68588813  0.51387283  0.56655873     0.01300
C774        C  0.65365986  0.49855321  0.53917033    -0.24200
H775        H  0.57278080  0.53662238  0.78221008     0.09300
H776        H  0.62223720  0.53776094  0.73854410     0.12900
H777        H  0.51189500  0.47835124  0.63162270     0.11600
H778        H  0.53938908  0.46737281  0.54665449     0.12800
H779        H  0.66214043  0.46728996  0.00490904     0.11900
H780        H  0.66260054  0.53096909  0.70297505     0.08900
H781        H  0.71230067  0.53651214  0.64846276     0.12200
H782        H  0.72436135  0.50433834  0.01550455     0.14100
C783        C  0.85929488  0.54855887  0.99385675    -0.01400
C784        C  0.88146593  0.54594264  0.03261552    -0.09500
C785        C  0.90914936  0.54236244  0.01023730    -0.18300
C786        C  0.91567808  0.54163888  0.94797281     0.04100
C787        C  0.89174409  0.54225614  0.90927915     0.18300
C788        C  0.86413831  0.54574161  0.93235630    -0.19700
C789        C  0.89619777  0.54077129  0.84745884    -0.21000
C790        C  0.92427912  0.53935417  0.82289172    -0.19500
C791        C  0.94906978  0.53991313  0.85933646     0.19700
C792        C  0.94526457  0.54108200  0.92237787     0.01800
C793        C  0.97175237  0.54260987  0.95648574    -0.14300
C794        C  0.00038624  0.54253729  0.92915467    -0.12000
C795        C  0.00381447  0.54049815  0.86658680     0.01300
C796        C  0.97773905  0.53952598  0.83253534    -0.24200
H797        H  0.87850705  0.54856144  0.08026190     0.09300
H798        H  0.92557343  0.54116959  0.04255513     0.12900
H799        H  0.84731919  0.54818664  0.90213877     0.11600
H800        H  0.87797981  0.54107509  0.81775187     0.12800
H801        H  0.92692087  0.53838827  0.77475735     0.11900
H802        H  0.97123363  0.54429005  0.00451636     0.08900
H803        H  0.01984942  0.54429103  0.95797151     0.12200
H804        H  0.97905494  0.53817224  0.78455487     0.14100
C805        C  0.15406524  0.78861710  0.91789165    -0.01400
C806        C  0.22548064  0.88425060  0.47752349    -0.09500
C807        C  0.20356426  0.89572389  0.46102894    -0.18300
C808        C  0.12967220  0.83329452  0.88681706     0.04100
C809        C  0.10706043  0.79625159  0.88704161     0.18300
C810        C  0.11949732  0.77435257  0.90160581    -0.19700
C811        C  0.07207618  0.78131434  0.87343326    -0.21000
C812        C  0.05890316  0.80245081  0.86055179    -0.19500
C813        C  0.08059808  0.83898543  0.85959234     0.19700
C814        C  0.11648052  0.85491790  0.87131224     0.01800
C815        C  0.13751367  0.89185287  0.86768963    -0.14300
C816        C  0.12302043  0.91219170  0.85737876    -0.12000
C817        C  0.08727770  0.89648466  0.84955471     0.01300
C818        C  0.06640358  0.85977518  0.84868384    -0.24200
H819        H  0.25216011  0.90375941  0.48696925     0.09300
H820        H  0.21504435  0.92369775  0.45848320     0.12900
H821        H  0.10221512  0.74614866  0.89991879     0.11600
H822        H  0.05463405  0.75311178  0.87381499     0.12800
H823        H  0.03152377  0.79013914  0.85151482     0.11900
H824        H  0.18146717  0.93859449  0.42766379     0.08900
H825        H  0.13936019  0.95587009  0.42926141     0.12200
H826        H  0.03869165  0.84728677  0.84244499     0.14100
C827        C  0.09780344  0.59849158  0.72166363    -0.01400
C828        C  0.09933637  0.62899475  0.74308272    -0.09500
C829        C  0.12437649  0.66208119  0.72015873    -0.18300
C830        C  0.14896225  0.66572813  0.67484977     0.04100
C831        C  0.14578168  0.63447752  0.65068388     0.18300
C832        C  0.12068030  0.60148621  0.67446588    -0.17100
C833        C  0.16837605  0.63637418  0.60407203    -0.21000
C834        C  0.19389610  0.66860747  0.58042378    -0.19500
C835        C  0.19831923  0.70000941  0.60383130     0.19700
C836        C  0.17647056  0.69905620  0.65245621     0.01800
C837        C  0.18324801  0.73152828  0.67646567    -0.14300
C838        C  0.20856963  0.76329004  0.65029622    -0.12000
C839        C  0.22814365  0.76411515  0.59925581     0.01300
C840        C  0.22369719  0.73229980  0.57762287    -0.24200
H841        H  0.08254735  0.62746015  0.78037579     0.09300
H842        H  0.12433508  0.68440455  0.73953921     0.12900
H843        H  0.12012633  0.57808142  0.65841824     0.11600
H844        H  0.16610965  0.61267760  0.58536857     0.12800
H845        H  0.21043598  0.66896389  0.54362871     0.11900
H846        H  0.16888208  0.73316752  0.71474137     0.08900
H847        H  0.21144129  0.78746211  0.66791086     0.12200
H848        H  0.23834840  0.73248484  0.53792692     0.14100
C849        C  0.42632040  0.90139249  0.81941085    -0.01400
C850        C  0.41943814  0.89620110  0.88094283    -0.09500
C851        C  0.38609136  0.87083111  0.90336974    -0.18300
C852        C  0.35859045  0.84958237  0.86457225     0.04100
C853        C  0.36572121  0.85597175  0.80232953     0.18300
C854        C  0.39898595  0.88163252  0.78075866    -0.19700
C855        C  0.33988158  0.83610463  0.76144956    -0.21000
C856        C  0.30687576  0.81003371  0.78077592    -0.19500
C857        C  0.29868477  0.80303249  0.84158573     0.19700
C858        C  0.32434526  0.82236604  0.88461932     0.01800
C859        C  0.31414479  0.81391045  0.94546695    -0.14300
C860        C  0.27945543  0.78924302  0.96266684    -0.12000
C861        C  0.25398112  0.77172241  0.91994227     0.01300
C862        C  0.26433598  0.77789804  0.85945818    -0.24200
H863        H  0.44030139  0.91055970  0.91160694     0.09300
H864        H  0.38275018  0.86775921  0.95111635     0.12900
H865        H  0.40421821  0.88519463  0.73302943     0.11600
H866        H  0.34522621  0.84080408  0.71397891     0.12800
H867        H  0.28742456  0.79547516  0.74778962     0.11900
H868        H  0.33211958  0.82706762  0.98075747     0.08900
H869        H  0.35578187  0.87979579  0.56241665     0.12200
H870        H  0.24469980  0.76504341  0.82609190     0.14100
C871        C  0.36488459  0.14336887  0.57206578    -0.01400
C872        C  0.34416993  0.10678901  0.56820445    -0.09500
C873        C  0.30804437  0.08990008  0.57133268    -0.18300
C874        C  0.29115271  0.10915080  0.57793204     0.04100
C875        C  0.31217903  0.14624235  0.58269331     0.18300
C876        C  0.34863586  0.16290589  0.58037419    -0.19700
C877        C  0.29669479  0.16652660  0.58803410    -0.21000
C878        C  0.26075460  0.15085373  0.58658988    -0.19500
C879        C  0.23935764  0.11444907  0.58078260     0.19700
C880        C  0.25423374  0.09301572  0.57799058     0.01800
C881        C  0.23151928  0.05635550  0.57431248    -0.14300
C882        C  0.19584404  0.04176313  0.57045063    -0.12000
C883        C  0.18129477  0.06297695  0.57005956     0.01300
C884        C  0.20320793  0.09935865  0.57647153    -0.24200
H885        H  0.35590984  0.09105679  0.56052243     0.09300
H886        H  0.29418309  0.06180399  0.56660547     0.12900
H887        H  0.34838473  0.21810922  0.06701495     0.11600
H888        H  0.28990152  0.20586330  0.06578289     0.12800
H889        H  0.23007037  0.16978756  0.03568269     0.11900
H890        H  0.24042368  0.03812746  0.57373927     0.08900
H891        H  0.17968360  0.01354533  0.56596573     0.12200
H892        H  0.19226503  0.11602888  0.57679735     0.14100
C893        C  0.49353672  0.00361349  0.70690720    -0.01400
C894        C  0.49301223  0.02830468  0.74653543    -0.09500
C895        C  0.49065233  0.05645438  0.72622084    -0.18300
C896        C  0.48877508  0.06141954  0.66483806     0.04100
C897        C  0.49008479  0.03709027  0.62437713     0.18300
C898        C  0.49209131  0.00858420  0.64544837    -0.19700
C899        C  0.48910568  0.04117995  0.56292941    -0.21000
C900        C  0.48593547  0.06826583  0.54077602    -0.19500
C901        C  0.48339781  0.09203165  0.57944065     0.19700
C902        C  0.48508745  0.08918472  0.64210874     0.01800
C903        C  0.48175342  0.11351073  0.67918064    -0.14300
C904        C  0.47522980  0.13821233  0.65528255    -0.12000
C905        C  0.47260859  0.14029188  0.59367755     0.01300
C906        C  0.47761624  0.11763583  0.55590404    -0.24200
H907        H  0.49479820  0.02652012  0.79394340     0.09300
H908        H  0.49049275  0.07404936  0.75986317     0.12900
H909        H  0.49193590  0.99001197  0.61333335     0.11600
H910        H  0.49060636  0.02311163  0.53165215     0.12800
H911        H  0.48478006  0.07020685  0.49300038     0.11900
H912        H  0.48264881  0.11319227  0.72704555     0.08900
H913        H  0.47063688  0.15485697  0.68540579     0.12200
H914        H  0.47464656  0.11837078  0.50837075     0.14100
C915        C  0.46467264  0.30881107  0.02948373    -0.01400
C916        C  0.49394446  0.32904400  0.99211627    -0.09500
C917        C  0.49995988  0.36044231  0.96677535    -0.18300
C918        C  0.47641123  0.37234931  0.97728968     0.04100
C919        C  0.44814382  0.35292391  0.01838599     0.18300
C920        C  0.44305248  0.32216663  0.04464643    -0.19700
C921        C  0.42373600  0.36298471  0.03037694    -0.21000
C922        C  0.42531045  0.39044619  0.99948728    -0.19500
C923        C  0.45179060  0.40920416  0.95663431     0.19700
C924        C  0.47857178  0.40146797  0.94648437     0.01800
C925        C  0.50537422  0.42236995  0.90422417    -0.14300
C926        C  0.50433234  0.44814213  0.87100035    -0.12000
C927        C  0.47649373  0.45381506  0.87815074     0.01300
C928        C  0.45080903  0.43476819  0.92232829    -0.24200
H929        H  0.51104742  0.31947763  0.97946405     0.09300
H930        H  0.52226629  0.37393355  0.93676394     0.12900
H931        H  0.42050365  0.30702210  0.07400163     0.11600
H932        H  0.40232055  0.34851573  0.06213624     0.12800
H933        H  0.40509639  0.39645323  0.00809297     0.11900
H934        H  0.52704574  0.41882202  0.89505165     0.08900
H935        H  0.52458803  0.46249329  0.83737049     0.12200
H936        H  0.42940987  0.43921756  0.92890862     0.14100
C937        C  0.23071892  0.36872325  0.86387737    -0.01400
C938        C  0.24727871  0.35110744  0.84238623    -0.09500
C939        C  0.22794838  0.31531360  0.82862228    -0.18300
C940        C  0.19128098  0.29598751  0.83631360     0.04100
C941        C  0.11971314  0.29020439  0.52764357     0.18300
C942        C  0.13290190  0.32629324  0.53071267    -0.19700
C943        C  0.08453608  0.26709025  0.54183810    -0.21000
C944        C  0.07089321  0.23120991  0.54115414    -0.19500
C945        C  0.09219072  0.21766355  0.52671949     0.19700
C946        C  0.17068795  0.25864697  0.83182401     0.01800
C947        C  0.18522674  0.23738049  0.82213291    -0.14300
C948        C  0.16444667  0.20087898  0.82510768    -0.12000
C949        C  0.12852655  0.18434751  0.83699581     0.01300
C950        C  0.07785833  0.18141489  0.52865800    -0.24200
H951        H  0.27536327  0.36471689  0.83822969     0.09300
H952        H  0.24246164  0.30333468  0.81369770     0.12900
H953        H  0.11587106  0.33570553  0.54525864     0.11600
H954        H  0.06749614  0.27684419  0.55400923     0.12800
H955        H  0.04356583  0.21393587  0.55279273     0.11900
H956        H  0.21269609  0.24815514  0.81456102     0.08900
H957        H  0.17683934  0.18561554  0.81990909     0.12200
H958        H  0.05053004  0.16464103  0.54097071     0.14100
C959        C  0.40998922  0.47918930  0.72664524    -0.01400
C960        C  0.37830388  0.46312794  0.75990586    -0.09500
C961        C  0.34819900  0.46018672  0.73777921    -0.18300
C962        C  0.34846496  0.47382410  0.68140040     0.04100
C963        C  0.38021221  0.48968412  0.64721384     0.18300
C964        C  0.41046886  0.49285454  0.67034614    -0.19700
C965        C  0.38166998  0.50261497  0.59020440    -0.21000
C966        C  0.35208294  0.49920034  0.56570113    -0.19500
C967        C  0.32038997  0.48383455  0.59821338     0.19700
C968        C  0.31839568  0.47197414  0.65735316     0.01800
C969        C  0.28621557  0.45831995  0.68927855    -0.14300
C970        C  0.25669092  0.45378579  0.66190086    -0.12000
C971        C  0.25800783  0.46277989  0.60199268     0.01300
C972        C  0.29032312  0.47886184  0.57104188    -0.24200
H973        H  0.37682977  0.45392114  0.80465827     0.09300
H974        H  0.32509120  0.44732836  0.76620544     0.12900
H975        H  0.43477429  0.50700894  0.64485177     0.11600
H976        H  0.40576036  0.51484569  0.56378319     0.12800
H977        H  0.42264429  0.50538620  0.97406793     0.11900
H978        H  0.28278221  0.44987161  0.73496305     0.08900
H979        H  0.23195584  0.44059880  0.68635716     0.12200
H980        H  0.36185574  0.48420891  0.95499950     0.14100
C981        C  0.22410310  0.46786059  0.94368007    -0.01400
C982        C  0.23670212  0.50363805  0.93686459    -0.09500
C983        C  0.21359026  0.51554307  0.92967837    -0.18300
C984        C  0.17711764  0.49170078  0.92792573     0.04100
C985        C  0.16463912  0.45579417  0.93874594     0.18300
C986        C  0.18795873  0.44453958  0.94805677    -0.19700
C987        C  0.12907193  0.43082517  0.93635310    -0.21000
C988        C  0.10571885  0.44031658  0.91939652    -0.19500
C989        C  0.11721910  0.47514118  0.90547437     0.19700
C990        C  0.15275315  0.50158629  0.91221036     0.01800
C991        C  0.16230726  0.53652953  0.90134464    -0.14300
C992        C  0.13853722  0.54434793  0.87889535    -0.12000
C993        C  0.10458243  0.51764274  0.86451155     0.01300
C994        C  0.09360301  0.48337102  0.88253018    -0.24200
H995        H  0.26444540  0.52212269  0.93337592     0.09300
H996        H  0.22507517  0.54322942  0.92215323     0.12900
H997        H  0.17797997  0.41680246  0.95405452     0.11600
H998        H  0.11942644  0.40342291  0.94501896     0.12800
H999        H  0.07860992  0.42006525  0.91544239     0.11900
H1000       H  0.18809419  0.55833788  0.90930441     0.08900
H1001       H  0.14733611  0.57165404  0.87214808     0.12200
H1002       H  0.06689891  0.46264064  0.87637302     0.14100
C1003       C  0.85424966  0.19271175  0.56510628    -0.01400
C1004       C  0.83119213  0.15613383  0.56511525    -0.09500
C1005       C  0.84324042  0.13299306  0.56950821    -0.18300
C1006       C  0.87890433  0.14553066  0.57609205     0.04100
C1007       C  0.87544723  0.16192132  0.96351908     0.18300
C1008       C  0.85186168  0.17287807  0.97768518    -0.19700
C1009       C  0.90694697  0.18494441  0.93371218    -0.21000
C1010       C  0.93070304  0.17474396  0.91873736    -0.19500
C1011       C  0.92345154  0.14119634  0.93288456     0.19700
C1012       C  0.89265960  0.12300928  0.57945127     0.01800
C1013       C  0.87247945  0.08624950  0.57078831    -0.14300
C1014       C  0.88767929  0.06566831  0.57069110    -0.12000
C1015       C  0.92326318  0.08085142  0.58035125     0.01300
C1016       C  0.94752027  0.13123933  0.91571722    -0.24200
H1017       H  0.80348318  0.14495283  0.56226141     0.09300
H1018       H  0.82390595  0.10539138  0.56890103     0.12900
H1019       H  0.85809935  0.19887785  0.96508492     0.11600
H1020       H  0.91322972  0.21103410  0.92174815     0.12800
H1021       H  0.95479223  0.19312844  0.89542752     0.11900
H1022       H  0.84519189  0.07286552  0.56155982     0.08900
H1023       H  0.87165467  0.03788701  0.56127765     0.12200
H1024       H  0.97147345  0.14942167  0.89177928     0.14100
C1025       C  0.00845580  0.47529744  0.71427004    -0.01400
C1026       C  0.97389815  0.46735158  0.71870246    -0.09500
C1027       C  0.94707770  0.43764387  0.69005534    -0.18300
C1028       C  0.95397925  0.41475919  0.65551629     0.04100
C1029       C  0.98939111  0.42425571  0.64823593     0.18300
C1030       C  0.01590623  0.45393983  0.67749578    -0.19700
C1031       C  0.99818981  0.40344249  0.61325021    -0.21000
C1032       C  0.97262802  0.37275305  0.58685134    -0.19500
C1033       C  0.93741511  0.36162289  0.59533132     0.19700
C1034       C  0.92732610  0.38242412  0.62924565     0.01800
C1035       C  0.89107987  0.36908572  0.63688295    -0.14300
C1036       C  0.86617031  0.33584739  0.61420341    -0.12000
C1037       C  0.87648142  0.31494336  0.58274982     0.01300
C1038       C  0.91229828  0.32894455  0.57187253    -0.24200
H1039       H  0.96719772  0.48311046  0.74688606     0.09300
H1040       H  0.92106992  0.43274713  0.69666836     0.12900
H1041       H  0.04252059  0.45996347  0.67285412     0.11600
H1042       H  0.02509479  0.41062652  0.60715421     0.12800
H1043       H  0.98044319  0.35698985  0.56102406     0.11900
H1044       H  0.88131897  0.38329365  0.66194186     0.08900
H1045       H  0.83882003  0.32588163  0.62347262     0.12200
H1046       H  0.92080259  0.31351029  0.54671784     0.14100
C1047       C  0.69819208  0.12387937  0.00662431    -0.01400
C1048       C  0.68270162  0.08882994  0.02469030    -0.09500
C1049       C  0.65150422  0.06240967  0.00092819    -0.18300
C1050       C  0.63462381  0.06999530  0.95721298     0.04100
C1051       C  0.64904678  0.10585502  0.94192435     0.18300
C1052       C  0.68045955  0.13237048  0.96676510    -0.19700
C1053       C  0.63277595  0.11483389  0.90000820    -0.21000
C1054       C  0.60321900  0.08904135  0.87160883    -0.19500
C1055       C  0.58932598  0.05341830  0.88351044     0.19700
C1056       C  0.60470564  0.04332578  0.92675407     0.01800
C1057       C  0.59053381  0.00694907  0.93520817    -0.14300
C1058       C  0.56324014  0.98190863  0.90076801    -0.12000
C1059       C  0.54838733  0.99193095  0.85781238     0.01300
C1060       C  0.56116022  0.02780426  0.85033510    -0.24200
H1061       H  0.69566475  0.08158701  0.05583883     0.09300
H1062       H  0.64168189  0.03616366  0.01664817     0.12900
H1063       H  0.69221622  0.15929024  0.95220384     0.11600
H1064       H  0.64335224  0.14202749  0.88827633     0.12800
H1065       H  0.59171482  0.09700599  0.83872856     0.11900
H1066       H  0.60094135  0.99702575  0.96633747     0.08900
H1067       H  0.55430986  0.95444443  0.90632345     0.12200
H1068       H  0.55079315  0.03592052  0.81573104     0.14100
loop_ 
_geom_bond_atom_site_label_1 
_geom_bond_atom_site_label_2 
_geom_bond_distance 
_geom_bond_site_symmetry_2 
_ccdc_geom_bond_type 
C1            C2   1.403       .  A
C1            C6   1.419       .  A
C1          C513   1.493       .  S
C2          C537   1.406       .  A
C2            H7   1.082       .  S
C3            C4   1.398       .  A
C3          C536   1.400       .  A
C3          C469   1.481       .  S
C4            C5   1.402       .  A
C4            H8   1.085       .  S
C5          C540   1.419       .  A
C5          C503   1.488       .  S
C6          C539   1.420       .  A
C6            H9   1.083       .  S
C10          C11   1.426       .  A
C10          C15   1.406       .  A
C10         C447   1.506       .  S
C11         C546   1.424       .  A
C11          H16   1.082       .  S
C12          C13   1.404       .  A
C12         C545   1.417       .  A
C12         C437   1.484   1_556  S
C13         C548   1.403       .  A
C13          H17   1.084       .  S
C14          C15   1.396       .  A
C14         C547   1.394       .  A
C14         C403   1.479       .  S
C15          H18   1.084       .  S
C19          C20   1.405       .  A
C19          C24   1.424       .  A
C19         C371   1.496       .  S
C20          C21   1.399       .  A
C20          H25   1.084       .  S
C21         C556   1.400       .  A
C21         C337   1.485       .  S
C22          C23   1.403       .  A
C22         C555   1.401       .  A
C22          H26   1.084       .  S
C23         C558   1.418       .  A
C23         C381   1.490       .  S
C24         C557   1.423       .  A
C24          H27   1.083       .  S
C28          C29   1.423       .  A
C28          C33   1.404       .  A
C28         C327   1.499       .  S
C29         C564   1.424       .  A
C29          H34   1.083       .  S
C30          C31   1.409       .  A
C30         C563   1.424       .  A
C30         C305   1.503   1_556  S
C31         C566   1.400       .  A
C31          H35   1.083       .  S
C32          C33   1.396       .  A
C32         C565   1.397       .  A
C32         C271   1.485       .  S
C33          H36   1.083       .  S
C37          C38   1.421       .  A
C37          C42   1.404       .  A
C37         C249   1.495       .  S
C38         C573   1.420       .  A
C38          H43   1.083       .  S
C39          C40   1.406       .  A
C39         C572   1.416       .  A
C39         C239   1.486       .  S
C40         C575   1.402       .  A
C40          H44   1.084       .  S
C41          C42   1.402       .  A
C41         C574   1.402       .  A
C41         C205   1.493       .  S
C42          H45   1.083       .  S
C46          C47   1.406       .  A
C46         C585   1.419       .  A
C46         C173   1.488   1_556  S
C47         C582   1.404       .  A
C47          H52   1.084       .  S
C48          C49   1.398       .  A
C48         C581   1.395       .  A
C48         C139   1.480       .  S
C49          C50   1.405       .  A
C49          H53   1.084       .  S
C50          C51   1.419       .  A
C50         C195   1.494       .  S
C51         C580   1.419       .  A
C51          H54   1.083       .  S
O55         Mg57   2.150   1_545  S
O55        Mg597   2.152   1_655  S
O55          C90   1.236   1_655  S
C56          H95   1.081   1_556  S
C56          O69   1.236       .  S
C56          O93   1.269       .  A
Mg57        O620   2.164       .  S
Mg57         O97   2.292       .  S
Mg57         O68   2.295       .  S
Mg57        O635   2.323   1_565  S
O58         Mg83   2.133       .  S
O58        Mg634   2.140   1_545  S
O58          C79   1.235   1_545  S
O59          C90   1.270       .  A
O59         Mg83   2.305       .  S
C60         C217   1.475       .  S
C60          O62   1.272       .  A
C60          O74   1.274       .  A
O61          C89   1.270       .  A
O61         Mg63   2.298   1_655  S
O62         Mg94   2.273       .  S
Mg63         O69   2.132       .  S
Mg63        O589   2.154       .  S
Mg63         O77   2.284   1_455  S
Mg63        O599   2.307       .  S
C64         C283   1.472       .  S
C64         O102   1.273       .  A
C64          O70   1.271       .  A
O65          C72   1.272       .  A
O65        Mg597   2.271       .  S
H66          C79   1.081   1_545  S
C67          H92   1.081       .  S
C67          O81   1.234       .  S
C67          O82   1.268   1_455  A
O68          C91   1.269       .  A
O69        Mg617   2.144       .  S
O70        Mg634   2.261       .  S
C71         C349   1.476       .  S
C71          O84   1.272       .  A
C71          O76   1.275       .  A
C72         C415   1.477       .  S
C72          O99   1.272       .  A
Mg73         O80   2.133       .  S
Mg73        O615   2.159   1_655  S
Mg73         O75   2.298   1_655  S
Mg73        O102   2.279   1_655  S
Mg73        O608   2.296       .  S
O74        Mg607   2.289   1_655  S
O75          C79   1.269       .  A
O76        Mg617   2.304       .  S
O77          C96   1.273       .  A
O78          C98   1.270       .  A
O78        Mg628   2.245       .  S
O80        Mg628   2.162       .  S
O80          C91   1.235       .  S
O81        Mg100   2.142       .  S
O81        Mg607   2.153       .  S
O82         Mg94   2.290       .  S
Mg83        O603   2.165       .  S
Mg83         O99   2.263       .  S
Mg83        O610   2.331       .  S
O84        Mg100   2.273   1_545  S
H85          C90   1.081   1_655  S
O86         Mg94   2.124       .  S
O86        Mg591   2.142   1_565  S
O86          C89   1.236   1_565  S
H87          C89   1.081   1_565  S
H88          C91   1.081       .  S
O93        Mg100   2.297   1_545  S
Mg94        O614   2.166       .  S
Mg94        O612   2.292       .  S
C96         C481   1.467       .  S
C96         O101   1.270       .  A
O97          C98   1.275       .  A
C98         C151   1.479       .  S
Mg100       O592   2.149   1_565  S
Mg100       O604   2.292       .  S
O101       Mg591   2.260       .  S
C103        C104   1.534   1_655  S
C103        C109   1.543       .  S
C103        C107   1.542       .  S
C103        C459   1.550   1_655  S
C104        H111   1.083       .  S
C104        C105   1.358   1_455  D
C105        C106   1.555       .  S
C105        C293   1.494   1_655  S
C106        C110   1.548       .  S
C106        C108   1.555       .  S
C106        H112   1.108       .  S
C107        H113   1.084       .  S
C107        C108   1.379       .  D
C108        C261   1.515       .  S
C109        H114   1.086       .  S
C109        C110   1.372       .  D
C110        C491   1.497       .  S
C115        C116   1.526       .  S
C115        C121   1.535       .  S
C115        C119   1.552       .  S
C115        C161   1.544   1_545  S
C116        H123   1.088   1_545  S
C116        C117   1.360       .  D
C117        C118   1.552       .  S
C117        C315   1.493       .  S
C118        C122   1.557       .  S
C118        C120   1.554       .  S
C118        H124   1.109       .  S
C119        H125   1.082       .  S
C119        C120   1.378       .  D
C120        C359   1.509       .  S
C121        H126   1.086       .  S
C121        C122   1.371       .  D
C122        C525   1.503       .  S
C127        C128   1.523       .  S
C127        C133   1.539       .  S
C127        C131   1.546       .  S
C127        C425   1.536       .  S
C128        H135   1.088       .  S
C128        C129   1.358       .  D
C129        C130   1.552       .  S
C129        C183   1.486       .  S
C130        C134   1.557       .  S
C130        C132   1.547       .  S
C130        H136   1.108       .  S
C131        H137   1.084       .  S
C131        C132   1.374       .  D
C132        C227   1.499       .  S
C133        H138   1.084       .  S
C133        C134   1.374       .  D
C134        C393   1.507       .  S
C139        C144   1.404       .  A
C139        C674   1.398       .  A
C140        C141   1.389       .  A
C140        C673   1.403       .  A
C140        H153   1.083       .  S
C141        C676   1.410       .  A
C141        H154   1.078       .  S
C142        C148   1.423       .  A
C142        C143   1.420       .  A
C142        C675   1.414       .  A
C143        C145   1.401       .  A
C143        C144   1.403       .  A
C144        H155   1.084       .  S
C145        C146   1.392       .  A
C145        H156   1.084       .  S
C146        C147   1.400       .  A
C146        H157   1.084       .  S
C147        C148   1.423       .  A
C147        C152   1.409       .  A
C148        C149   1.408       .  A
C149        C150   1.385       .  A
C149        H692   1.077       .  S
C150        C151   1.403       .  A
C150        H693   1.083       .  S
C151        C152   1.402       .  A
C152        H160   1.084       .  S
H158        C683   1.078       .  S
H159        C684   1.083       .  S
C161        C162   1.408       .  A
C161        C166   1.409       .  A
C162        C163   1.407       .  A
C162        H175   1.078   1_565  S
C163        C164   1.417       .  A
C163        H176   1.077       .  S
C164        C170   1.440       .  A
C164        C165   1.420       .  A
C165        C167   1.401       .  A
C165        C166   1.409       .  A
C166        H177   1.084       .  S
C167        C168   1.391       .  A
C167        H178   1.084       .  S
C168        C169   1.399       .  A
C168        H179   1.084       .  S
C169        C170   1.425       .  A
C169        C174   1.412       .  A
C170        C171   1.417       .  A
C171        C172   1.405   1_554  A
C171        H180   1.075   1_554  S
C172        C173   1.401   1_556  A
C172        H715   1.084       .  S
C173        C174   1.401       .  A
C174        H182   1.084       .  S
H181        C706   1.083       .  S
C183        C184   1.400       .  A
C183        C188   1.405       .  A
C184        C185   1.397       .  A
C184        H197   1.084       .  S
C185        C186   1.414       .  A
C185        H198   1.079       .  S
C186        C192   1.432       .  A
C186        C187   1.421       .  A
C187        C189   1.403       .  A
C187        C188   1.415       .  A
C188        H199   1.084       .  S
C189        C190   1.399       .  A
C189        H200   1.084       .  S
C190        C191   1.403       .  A
C190        H201   1.084       .  S
C191        C192   1.423       .  A
C191        C196   1.418       .  A
C192        C193   1.411       .  A
C193        C194   1.395       .  A
C193        H202   1.079       .  S
C194        C195   1.404       .  A
C194        H203   1.084       .  S
C195        C196   1.406       .  A
C196        H204   1.084       .  S
C205        C206   1.404       .  A
C205        C744   1.405       .  A
C206        C207   1.397       .  A
C206        H219   1.083       .  S
C207        C742   1.414       .  A
C207        H220   1.077       .  S
C208        C214   1.426       .  A
C208        C209   1.421   1_556  A
C208        C741   1.412       .  A
C209        C211   1.401       .  A
C209        C210   1.410       .  A
C210        C739   1.406   1_554  A
C210        H221   1.084       .  S
C211        C212   1.395       .  A
C211        H222   1.084       .  S
C212        C213   1.401   1_554  A
C212        H223   1.084       .  S
C213        C214   1.422       .  A
C213        C218   1.410       .  A
C214        C749   1.413       .  A
C215        C216   1.397       .  A
C215        C748   1.414       .  A
C215        H224   1.077       .  S
C216        C751   1.400       .  A
C216        H225   1.084       .  S
C217        C218   1.403       .  A
C217        C750   1.398       .  A
C218        H226   1.084       .  S
C227        C228   1.403       .  A
C227        C232   1.406       .  A
C228        C229   1.403       .  A
C228        H241   1.082       .  S
C229        C230   1.417       .  A
C229        H242   1.078       .  S
C230        C236   1.438       .  A
C230        C231   1.422       .  A
C231        C233   1.400       .  A
C231        C232   1.409       .  A
C232        H243   1.084       .  S
C233        C234   1.391       .  A
C233        H244   1.084       .  S
C234        C235   1.400       .  A
C234        H779   1.084       .  S
C235        C236   1.424       .  A
C235        C240   1.411       .  A
C236        C237   1.416       .  A
C237        C238   1.402       .  A
C237        H246   1.078       .  S
C238        C239   1.401       .  A
C238        H247   1.083       .  S
C239        C240   1.401       .  A
C240        H782   1.085       .  S
H245        C768   1.084       .  S
H248        C774   1.084       .  S
C249        C250   1.401       .  A
C249        C254   1.406       .  A
C250        C251   1.407       .  A
C250        H263   1.083       .  S
C251        C252   1.420       .  A
C251        H264   1.077       .  S
C252        C258   1.441       .  A
C252        C253   1.422       .  A
C253        C255   1.401       .  A
C253        C254   1.412       .  A
C254        H265   1.085       .  S
C255        C256   1.394       .  A
C255        H266   1.084       .  S
C256        C257   1.401       .  A
C256        H267   1.084       .  S
C257        C258   1.424       .  A
C257        C262   1.416       .  A
C258        C259   1.414       .  A
C259        C260   1.403       .  A
C259        H268   1.078       .  S
C260        C261   1.409       .  A
C260        H269   1.081       .  S
C261        C262   1.408       .  A
C262        H270   1.082       .  S
C271        C276   1.404       .  A
C271        C806   1.401       .  A
C272        C273   1.391       .  A
C272        C805   1.402       .  A
C272        H285   1.083       .  S
C273        C808   1.412       .  A
C273        H286   1.077       .  S
C274        C280   1.424       .  A
C274        C275   1.420       .  A
C274        C807   1.413       .  A
C275        C277   1.400       .  A
C275        C276   1.403       .  A
C276        H287   1.084       .  S
C277        C278   1.391       .  A
C277        H288   1.084       .  S
C278        C279   1.399       .  A
C278        H289   1.084       .  S
C279        C280   1.423       .  A
C279        C284   1.406       .  A
C280        C281   1.411       .  A
C281        C282   1.389       .  A
C281        H824   1.077       .  S
C282        C283   1.400       .  A
C282        H825   1.084       .  S
C283        C284   1.400       .  A
C284        H292   1.084       .  S
H290        C815   1.077       .  S
H291        C816   1.083       .  S
C293        C294   1.399       .  A
C293        C298   1.408       .  A
C294        C295   1.405       .  A
C294        H307   1.084   1_455  S
C295        C296   1.419       .  A
C295        H308   1.077       .  S
C296        C302   1.439       .  A
C296        C297   1.420       .  A
C297        C299   1.403       .  A
C297        C298   1.414       .  A
C298        H309   1.084       .  S
C299        C300   1.396       .  A
C299        H310   1.083       .  S
C300        C301   1.402       .  A
C300        H311   1.084   1_554  S
C301        C302   1.426       .  A
C301        C306   1.419       .  A
C302        C303   1.412       .  A
C303        C304   1.399       .  A
C303        H312   1.077       .  S
C304        C305   1.406       .  A
C304        H313   1.084       .  S
C305        C306   1.406       .  A
C306        H314   1.084   1_554  S
C315        C316   1.403   1_545  A
C315        C320   1.400   1_545  A
C316        C317   1.413       .  A
C316        H329   1.083   1_565  S
C317        C318   1.420       .  A
C317        H330   1.079       .  S
C318        C324   1.443       .  A
C318        C319   1.424       .  A
C319        C321   1.397       .  A
C319        C320   1.404       .  A
C320        H331   1.086       .  S
C321        C322   1.386       .  A
C321        H332   1.084       .  S
C322        C323   1.398       .  A
C322        H333   1.084       .  S
C323        C324   1.423       .  A
C323        C328   1.404       .  A
C324        C325   1.421       .  A
C325        C326   1.414       .  A
C325        H334   1.079       .  S
C326        C327   1.405       .  A
C326        H869   1.083       .  S
C327        C328   1.403       .  A
C328        H336   1.086       .  S
H335        C860   1.083   1_554  S
C337        C338   1.401       .  A
C337        C342   1.400       .  A
C338        C339   1.401   1_554  A
C338        H351   1.083   1_554  S
C339        C340   1.417       .  A
C339        H352   1.078       .  S
C340        C346   1.432       .  A
C340        C341   1.422   1_556  A
C341        C343   1.398       .  A
C341        C342   1.401       .  A
C342        H887   1.085       .  S
C343        C344   1.387       .  A
C343        H888   1.084       .  S
C344        C345   1.398   1_554  A
C344        H889   1.084       .  S
C345        C346   1.423       .  A
C345        C350   1.402       .  A
C346        C347   1.417       .  A
C347        C348   1.400       .  A
C347        H356   1.078       .  S
C348        C349   1.400       .  A
C348        H357   1.083       .  S
C349        C350   1.398       .  A
C350        H358   1.085       .  S
H353        C876   1.084       .  S
H354        C877   1.084       .  S
H355        C878   1.084       .  S
C359        C360   1.404       .  A
C359        C364   1.408       .  A
C360        C361   1.407       .  A
C360        H373   1.082       .  S
C361        C362   1.418       .  A
C361        H374   1.078       .  S
C362        C368   1.443       .  A
C362        C363   1.422       .  A
C363        C365   1.401       .  A
C363        C364   1.414       .  A
C364        H375   1.083       .  S
C365        C366   1.394       .  A
C365        H376   1.084       .  S
C366        C367   1.400       .  A
C366        H377   1.084       .  S
C367        C368   1.425       .  A
C367        C372   1.416       .  A
C368        C369   1.416       .  A
C369        C370   1.404       .  A
C369        H378   1.078       .  S
C370        C371   1.404       .  A
C370        H379   1.084       .  S
C371        C372   1.403       .  A
C372        H380   1.084       .  S
C381        C382   1.401       .  A
C381        C386   1.403       .  A
C382        C383   1.401       .  A
C382        H395   1.084       .  S
C383        C384   1.417       .  A
C383        H396   1.078       .  S
C384        C390   1.439       .  A
C384        C385   1.423       .  A
C385        C387   1.401       .  A
C385        C386   1.415       .  A
C386        H397   1.085       .  S
C387        C388   1.395       .  A
C387        H398   1.084       .  S
C388        C389   1.401       .  A
C388        H399   1.084       .  S
C389        C390   1.424       .  A
C389        C394   1.417       .  A
C390        C391   1.414       .  A
C391        C392   1.400       .  A
C391        H400   1.078       .  S
C392        C393   1.407       .  A
C392        H401   1.082       .  S
C393        C394   1.406       .  A
C394        H402   1.083       .  S
C403        C404   1.400       .  A
C403        C942   1.400       .  A
C404        C405   1.395       .  A
C404        H417   1.083       .  S
C405        C406   1.414       .  A
C405        H418   1.078       .  S
C406        C412   1.427       .  A
C406        C941   1.422       .  A
C407        C409   1.399       .  A
C407        C408   1.398       .  A
C407        C940   1.419       .  A
C408        C937   1.405       .  A
C408        H419   1.083       .  S
C409        C410   1.386       .  A
C409        H420   1.084       .  S
C410        C411   1.398       .  A
C410        H421   1.084       .  S
C411        C416   1.402       .  A
C411        C946   1.423       .  A
C412        C413   1.416       .  A
C412        C945   1.421       .  A
C413        C414   1.397       .  A
C413        H422   1.078       .  S
C414        C415   1.400       .  A
C414        H423   1.083       .  S
C415        C950   1.402       .  A
C416        C949   1.401       .  A
C416        H424   1.084       .  S
C425        C426   1.406       .  A
C425        C430   1.411       .  A
C426        C427   1.399       .  A
C426        H439   1.081       .  S
C427        C428   1.414       .  A
C427        H440   1.078       .  S
C428        C434   1.435       .  A
C428        C429   1.420       .  A
C429        C431   1.402       .  A
C429        C430   1.412       .  A
C430        H441   1.082       .  S
C431        C432   1.394       .  A
C431        H442   1.084       .  S
C432        C433   1.401       .  A
C432        H977   1.084   1_554  S
C433        C434   1.424       .  A
C433        C438   1.413   1_554  A
C434        C435   1.415       .  A
C435        C436   1.398       .  A
C435        H444   1.078       .  S
C436        C437   1.399       .  A
C436        H445   1.083       .  S
C437        C438   1.403   1_554  A
C438        H980   1.085       .  S
H443        C966   1.084       .  S
H446        C972   1.085       .  S
C447        C448   1.402       .  A
C447        C452   1.410       .  A
C448        C449   1.410       .  A
C448        H461   1.083       .  S
C449        C450   1.422       .  A
C449        H462   1.078       .  S
C450        C456   1.441       .  A
C450        C451   1.419       .  A
C451        C453   1.401       .  A
C451        C452   1.407       .  A
C452        H463   1.085       .  S
C453        C454   1.392       .  A
C453        H464   1.084       .  S
C454        C455   1.399       .  A
C454        H465   1.084       .  S
C455        C456   1.424       .  A
C455        C460   1.414       .  A
C456        C457   1.411       .  A
C457        C458   1.402       .  A
C457        H466   1.078       .  S
C458        C459   1.413       .  A
C458        H467   1.079       .  S
C459        C460   1.408       .  A
C460        H468   1.084   1_455  S
C469        C470   1.399       .  A
C469       C1008   1.401   1_554  A
C470        C471   1.394       .  A
C470        H483   1.083       .  S
C471        C472   1.415   1_554  A
C471        H484   1.077       .  S
C472        C478   1.427       .  A
C472       C1007   1.422       .  A
C473        C475   1.399       .  A
C473        C474   1.404       .  A
C473       C1006   1.420       .  A
C474       C1003   1.408       .  A
C474        H485   1.082       .  S
C475        C476   1.388       .  A
C475        H486   1.084       .  S
C476        C477   1.399       .  A
C476        H487   1.084       .  S
C477        C482   1.403       .  A
C477       C1012   1.422       .  A
C478        C479   1.413       .  A
C478       C1011   1.425       .  A
C479        C480   1.391       .  A
C479        H488   1.077       .  S
C480        C481   1.399       .  A
C480        H489   1.084       .  S
C481       C1016   1.397       .  A
C482       C1015   1.403       .  A
C482        H490   1.085       .  S
C491        C492   1.403       .  A
C491        C496   1.403       .  A
C492        C493   1.399       .  A
C492        H505   1.083       .  S
C493        C494   1.414       .  A
C493        H506   1.078       .  S
C494        C500   1.438       .  A
C494        C495   1.425       .  A
C495        C497   1.401       .  A
C495        C496   1.416       .  A
C496        H507   1.084       .  S
C497        C498   1.395       .  A
C497        H508   1.084       .  S
C498        C499   1.401       .  A
C498        H509   1.084       .  S
C499        C500   1.422       .  A
C499        C504   1.413       .  A
C500        C501   1.418       .  A
C501        C502   1.403       .  A
C501        H510   1.078       .  S
C502        C503   1.401       .  A
C502        H511   1.084       .  S
C503        C504   1.404       .  A
C504        H512   1.085       .  S
C513        C514   1.403       .  A
C513        C518   1.402       .  A
C514        C515   1.407       .  A
C514        H527   1.083       .  S
C515        C516   1.417       .  A
C515        H528   1.078       .  S
C516        C522   1.443       .  A
C516        C517   1.425       .  A
C517        C519   1.400       .  A
C517        C518   1.412       .  A
C518        H529   1.085       .  S
C519        C520   1.391       .  A
C519        H530   1.084       .  S
C520        C521   1.401       .  A
C520        H531   1.084       .  S
C521        C522   1.422       .  A
C521        C526   1.409       .  A
C522        C523   1.421       .  A
C523        C524   1.410       .  A
C523        H532   1.078       .  S
C524        C525   1.402       .  A
C524        H533   1.083       .  S
C525        C526   1.406       .  A
C526        H534   1.084       .  S
C535        C536   1.405       .  A
C535        C540   1.420       .  A
C535       C1047   1.497       .  S
C536        H541   1.084   1_554  S
C537        C538   1.408       .  A
C537       C1003   1.506       .  S
C538        C539   1.409       .  A
C538        H542   1.081       .  S
C539       C1037   1.508       .  S
C540        H543   1.083       .  S
C544        C545   1.414       .  A
C544        C549   1.402       .  A
C544        C981   1.492       .  S
C545        H550   1.083   1_556  S
C546        C547   1.399       .  A
C546        C971   1.491       .  S
C547        H551   1.085       .  S
C548        C549   1.399       .  A
C548        C937   1.490       .  S
C549        H552   1.084       .  S
C553        C554   1.403       .  A
C553        C558   1.418       .  A
C553        C905   1.492       .  S
C554        C555   1.402       .  A
C554        H559   1.084       .  S
C555        C871   1.487       .  S
C556        C557   1.405       .  A
C556        H560   1.084       .  S
C557        C915   1.505       .  S
C558        H561   1.083       .  S
C562        C563   1.421       .  A
C562        C567   1.399       .  A
C562        C861   1.494       .  S
C563        H568   1.083       .  S
C564        C565   1.403       .  A
C564        C839   1.497       .  S
C565        H569   1.084       .  S
C566        C567   1.397       .  A
C566        C805   1.487       .  S
C567        H570   1.084       .  S
C571        C572   1.413       .  A
C571        C576   1.401   1_554  A
C571        C783   1.490   1_554  S
C572        H577   1.083       .  S
C573        C574   1.403       .  A
C573        C773   1.496       .  S
C574        H578   1.083       .  S
C575        C576   1.404   1_554  A
C575        C739   1.490   1_554  S
C576        H579   1.084       .  S
C580        C581   1.399       .  A
C580        C707   1.484       .  S
C581        H586   1.084       .  S
C582        C583   1.399       .  A
C582        C673   1.488       .  S
C583        C584   1.398       .  A
C583        H587   1.084       .  S
C584        C585   1.415       .  A
C584        C729   1.490       .  S
C585        H588   1.083       .  S
O589       Mg591   2.134   1_455  S
O589        C624   1.236       .  S
C590        H629   1.078       .  S
C590        O603   1.236       .  S
C590        O627   1.270       .  A
Mg591       O631   2.253   1_545  S
Mg591       O602   2.293   1_545  S
O592       Mg617   2.140       .  S
O592        C613   1.237       .  S
O593        C624   1.270       .  A
O593       Mg617   2.296       .  S
C594        C751   1.475       .  S
C594        O596   1.272       .  A
C594        O608   1.274       .  A
O595        C623   1.269   1_545  A
O595       Mg597   2.292   1_655  S
O596       Mg628   2.260       .  S
Mg597       O603   2.142       .  S
Mg597       O611   2.251   1_455  S
C598        C817   1.476       .  S
C598        O636   1.270       .  A
C598        O604   1.274       .  A
O599        C606   1.277       .  A
H600        C613   1.081       .  S
C601        H626   1.081       .  S
C601        O615   1.235       .  S
C601        O616   1.266   1_455  A
O602        C625   1.271       .  A
C605        C883   1.483       .  S
C605        O618   1.268       .  A
C605        O610   1.277       .  A
C606        C949   1.482       .  S
C606        O633   1.272       .  A
Mg607       O614   2.123   1_455  S
Mg607       O609   2.302       .  S
Mg607       O636   2.241       .  S
O609        C613   1.271   1_565  A
O611        C630   1.272       .  A
O612        C632   1.275       .  A
O614        C625   1.238       .  S
O615       Mg634   2.112       .  S
O616       Mg628   2.277       .  S
Mg617       O633   2.256       .  S
O618       Mg634   2.223   1_545  S
H619        C624   1.082       .  S
O620       Mg628   2.137       .  S
O620        C623   1.235       .  S
H621        C623   1.081       .  S
H622        C625   1.082       .  S
O627       Mg634   2.292   1_545  S
C630       C1015   1.486       .  S
C630        O635   1.277       .  A
O631        C632   1.270       .  A
C632        C685   1.477       .  S
C637        C638   1.531       .  S
C637        C643   1.544       .  S
C637        C641   1.540       .  S
C637        C993   1.544       .  S
C638        H645   1.085       .  S
C638        C639   1.355       .  D
C639        C640   1.555       .  S
C639        C827   1.493       .  S
C640        C644   1.554       .  S
C640        C642   1.561       .  S
C640        H646   1.105       .  S
C641        H647   1.083       .  S
C641        C642   1.380       .  D
C642        C795   1.521       .  S
C643        H648   1.085       .  S
C643        C644   1.371       .  D
C644       C1025   1.506       .  S
C649        C650   1.522       .  S
C649        C655   1.537       .  S
C649        C653   1.552       .  S
C649        C695   1.539       .  S
C650        H657   1.088       .  S
C650        C651   1.357       .  D
C651        C652   1.556       .  S
C651        C849   1.495       .  S
C652        C656   1.553       .  S
C652        C654   1.557       .  S
C652        H658   1.107       .  S
C653        H659   1.081       .  S
C653        C654   1.382       .  D
C654        C893   1.518   1_565  S
C655        H660   1.086       .  S
C655        C656   1.368       .  D
C656       C1059   1.496       .  S
C661        C662   1.520       .  S
C661        C667   1.545       .  S
C661        C665   1.551       .  S
C661        C959   1.542       .  S
C662        H669   1.088       .  S
C662        C663   1.356       .  D
C663        C664   1.553       .  S
C663        C717   1.488       .  S
C664        C668   1.550       .  S
C664        C666   1.559       .  S
C664        H670   1.105       .  S
C665        H671   1.082       .  S
C665        C666   1.383       .  D
C666        C761   1.523       .  S
C667        H672   1.085       .  S
C667        C668   1.372       .  D
C668        C927   1.502       .  S
C673        C678   1.405       .  A
C674        C675   1.390       .  A
C674        H687   1.083       .  S
C675        H688   1.077       .  S
C676        C682   1.423       .  A
C676        C677   1.421       .  A
C677        C679   1.401       .  A
C677        C678   1.407       .  A
C678        H689   1.084       .  S
C679        C680   1.394       .  A
C679        H690   1.084       .  S
C680        C681   1.401       .  A
C680        H691   1.084       .  S
C681        C682   1.419       .  A
C681        C686   1.405       .  A
C682        C683   1.412       .  A
C683        C684   1.391       .  A
C684        C685   1.400       .  A
C685        C686   1.405       .  A
C686        H694   1.084       .  S
C695        C696   1.407       .  A
C695        C700   1.410       .  A
C696        C697   1.404       .  A
C696        H709   1.080       .  S
C697        C698   1.416       .  A
C697        H710   1.078       .  S
C698        C704   1.438       .  A
C698        C699   1.420       .  A
C699        C701   1.401       .  A
C699        C700   1.409       .  A
C700        H711   1.084       .  S
C701        C702   1.392       .  A
C701        H712   1.084       .  S
C702        C703   1.400       .  A
C702        H713   1.084       .  S
C703        C704   1.424       .  A
C703        C708   1.410       .  A
C704        C705   1.417       .  A
C705        C706   1.403       .  A
C705        H714   1.078       .  S
C706        C707   1.400       .  A
C707        C708   1.403       .  A
C708        H716   1.085       .  S
C717        C718   1.401       .  A
C717        C722   1.404       .  A
C718        C719   1.397       .  A
C718        H731   1.084       .  S
C719        C720   1.414       .  A
C719        H732   1.078       .  S
C720        C726   1.435       .  A
C720        C721   1.423       .  A
C721        C723   1.402       .  A
C721        C722   1.417       .  A
C722        H733   1.084       .  S
C723        C724   1.397       .  A
C723        H734   1.083   1_556  S
C724        C725   1.402       .  A
C724        H735   1.084   1_556  S
C725        C726   1.423       .  A
C725        C730   1.416       .  A
C726        C727   1.414       .  A
C727        C728   1.397       .  A
C727        H736   1.078       .  S
C728        C729   1.402       .  A
C728        H737   1.084       .  S
C729        C730   1.405       .  A
C730        H738   1.084   1_556  S
C739        C740   1.402       .  A
C740        C741   1.391       .  A
C740        H753   1.083       .  S
C741        H754   1.077       .  S
C742        C748   1.429       .  A
C742        C743   1.420       .  A
C743        C745   1.400       .  A
C743        C744   1.402       .  A
C744        H755   1.083       .  S
C745        C746   1.389       .  A
C745        H756   1.084       .  S
C746        C747   1.399       .  A
C746        H757   1.084       .  S
C747        C748   1.423       .  A
C747        C752   1.404       .  A
C749        C750   1.391       .  A
C749        H758   1.077       .  S
C750        H759   1.084       .  S
C751        C752   1.399       .  A
C752        H760   1.084       .  S
C761        C762   1.409       .  A
C761        C766   1.415       .  A
C762        C763   1.403       .  A
C762        H775   1.078       .  S
C763        C764   1.414       .  A
C763        H776   1.078       .  S
C764        C770   1.440       .  A
C764        C765   1.420       .  A
C765        C767   1.403       .  A
C765        C766   1.416       .  A
C766        H777   1.080       .  S
C767        C768   1.396       .  A
C767        H778   1.084       .  S
C768        C769   1.401       .  A
C769        C770   1.424       .  A
C769        C774   1.418       .  A
C770        C771   1.414       .  A
C771        C772   1.401       .  A
C771        H780   1.077       .  S
C772        C773   1.404       .  A
C772        H781   1.084       .  S
C773        C774   1.405       .  A
C783        C784   1.401   1_556  A
C783        C788   1.402       .  A
C784        C785   1.408       .  A
C784        H797   1.083       .  S
C785        C786   1.419   1_554  A
C785        H798   1.078       .  S
C786        C792   1.441       .  A
C786        C787   1.423       .  A
C787        C789   1.399       .  A
C787        C788   1.407       .  A
C788        H799   1.085       .  S
C789        C790   1.389       .  A
C789        H800   1.084       .  S
C790        C791   1.400       .  A
C790        H801   1.084       .  S
C791        C792   1.421       .  A
C791        C796   1.410       .  A
C792        C793   1.415       .  A
C793        C794   1.406   1_655  A
C793        H802   1.079   1_556  S
C794        C795   1.412       .  A
C794        H803   1.079       .  S
C795        C796   1.408   1_455  A
C796        H804   1.078       .  S
C805        C810   1.403       .  A
C806        C807   1.391       .  A
C806        H819   1.083       .  S
C807        H820   1.077       .  S
C808        C814   1.426       .  A
C808        C809   1.422       .  A
C809        C811   1.399       .  A
C809        C810   1.405       .  A
C810        H821   1.084       .  S
C811        C812   1.390       .  A
C811        H822   1.084       .  S
C812        C813   1.400       .  A
C812        H823   1.084       .  S
C813        C814   1.421       .  A
C813        C818   1.403       .  A
C814        C815   1.414       .  A
C815        C816   1.393       .  A
C816        C817   1.400       .  A
C817        C818   1.403       .  A
C818        H826   1.084       .  S
C827        C828   1.400       .  A
C827        C832   1.406       .  A
C828        C829   1.407       .  A
C828        H841   1.084       .  S
C829        C830   1.420       .  A
C829        H842   1.078       .  S
C830        C836   1.440       .  A
C830        C831   1.421       .  A
C831        C833   1.402       .  A
C831        C832   1.412       .  A
C832        H843   1.084       .  S
C833        C834   1.394       .  A
C833        H844   1.083       .  S
C834        C835   1.400       .  A
C834        H845   1.084       .  S
C835        C836   1.425       .  A
C835        C840   1.416       .  A
C836        C837   1.414       .  A
C837        C838   1.401       .  A
C837        H846   1.078       .  S
C838        C839   1.406       .  A
C838        H847   1.084       .  S
C839        C840   1.403       .  A
C840        H848   1.084       .  S
C849        C850   1.401       .  A
C849        C854   1.403       .  A
C850        C851   1.411       .  A
C850        H863   1.083       .  S
C851        C852   1.421       .  A
C851        H864   1.078       .  S
C852        C858   1.443       .  A
C852        C853   1.423       .  A
C853        C855   1.399       .  A
C853        C854   1.406       .  A
C854        H865   1.085       .  S
C855        C856   1.389       .  A
C855        H866   1.084       .  S
C856        C857   1.399       .  A
C856        H867   1.084       .  S
C857        C858   1.424       .  A
C857        C862   1.408       .  A
C858        C859   1.419       .  A
C859        C860   1.410       .  A
C859        H868   1.079       .  S
C860        C861   1.403       .  A
C861        C862   1.404       .  A
C862        H870   1.085       .  S
C871        C872   1.400       .  A
C871        C876   1.404       .  A
C872        C873   1.393       .  A
C872        H885   1.083       .  S
C873        C874   1.414       .  A
C873        H886   1.077       .  S
C874        C880   1.428       .  A
C874        C875   1.421       .  A
C875        C877   1.401       .  A
C875        C876   1.407       .  A
C877        C878   1.392       .  A
C878        C879   1.400       .  A
C879        C880   1.423       .  A
C879        C884   1.409       .  A
C880        C881   1.412       .  A
C881        C882   1.391       .  A
C881        H890   1.077       .  S
C882        C883   1.403       .  A
C882        H891   1.083       .  S
C883        C884   1.403       .  A
C884        H892   1.084       .  S
C893        C894   1.408       .  A
C893        C898   1.412       .  A
C894        C895   1.403       .  A
C894        H907   1.079       .  S
C895        C896   1.414       .  A
C895        H908   1.078       .  S
C896        C902   1.440       .  A
C896        C897   1.421       .  A
C897        C899   1.401       .  A
C897        C898   1.415       .  A
C898        H909   1.082   1_545  S
C899        C900   1.394       .  A
C899        H910   1.082       .  S
C900        C901   1.401       .  A
C900        H911   1.084       .  S
C901        C902   1.424       .  A
C901        C906   1.415       .  A
C902        C903   1.417       .  A
C903        C904   1.402       .  A
C903        H912   1.078       .  S
C904        C905   1.402       .  A
C904        H913   1.084       .  S
C905        C906   1.403       .  A
C906        H914   1.084       .  S
C915        C916   1.403   1_554  A
C915        C920   1.408       .  A
C916        C917   1.412       .  A
C916        H929   1.083       .  S
C917        C918   1.421       .  A
C917        H930   1.078       .  S
C918        C924   1.443       .  A
C918        C919   1.422   1_556  A
C919        C921   1.401       .  A
C919        C920   1.409       .  A
C920        H931   1.085       .  S
C921        C922   1.391   1_554  A
C921        H932   1.084       .  S
C922        C923   1.399       .  A
C922        H933   1.083   1_556  S
C923        C924   1.425       .  A
C923        C928   1.412       .  A
C924        C925   1.417       .  A
C925        C926   1.408       .  A
C925        H934   1.078       .  S
C926        C927   1.404       .  A
C926        H935   1.083       .  S
C927        C928   1.404       .  A
C928        H936   1.084       .  S
C937        C938   1.402       .  A
C938        C939   1.399       .  A
C938        H951   1.083       .  S
C939        C940   1.416       .  A
C939        H952   1.077       .  S
C940        C946   1.429       .  A
C941        C943   1.398       .  A
C941        C942   1.398       .  A
C942        H953   1.085       .  S
C943        C944   1.385       .  A
C943        H954   1.084       .  S
C944        C945   1.398       .  A
C944        H955   1.084       .  S
C945        C950   1.397       .  A
C946        C947   1.414       .  A
C947        C948   1.397       .  A
C947        H956   1.077       .  S
C948        C949   1.403       .  A
C948        H957   1.083       .  S
C950        H958   1.085       .  S
C959        C960   1.409       .  A
C959        C964   1.411       .  A
C960        C961   1.403       .  A
C960        H973   1.081       .  S
C961        C962   1.415       .  A
C961        H974   1.079       .  S
C962        C968   1.440       .  A
C962        C963   1.421       .  A
C963        C965   1.402       .  A
C963        C964   1.414       .  A
C964        H975   1.083       .  S
C965        C966   1.395       .  A
C965        H976   1.084       .  S
C966        C967   1.401       .  A
C967        C968   1.424       .  A
C967        C972   1.415       .  A
C968        C969   1.416       .  A
C969        C970   1.403       .  A
C969        H978   1.079       .  S
C970        C971   1.403       .  A
C970        H979   1.084       .  S
C971        C972   1.405       .  A
C981        C982   1.400       .  A
C981        C986   1.406       .  A
C982        C983   1.408       .  A
C982        H995   1.083       .  S
C983        C984   1.421       .  A
C983        H996   1.078       .  S
C984        C990   1.437       .  A
C984        C985   1.420       .  A
C985        C987   1.401       .  A
C985        C986   1.403       .  A
C986        H997   1.085       .  S
C987        C988   1.390       .  A
C987        H998   1.084       .  S
C988        C989   1.399       .  A
C988        H999   1.084       .  S
C989        C990   1.424       .  A
C989        C994   1.411       .  A
C990        C991   1.410       .  A
C991        C992   1.400       .  A
C991       H1000   1.078       .  S
C992        C993   1.412       .  A
C992       H1001   1.081       .  S
C993        C994   1.406       .  A
C994       H1002   1.083       .  S
C1003      C1004   1.408       .  A
C1004      C1005   1.400       .  A
C1004      H1017   1.081       .  S
C1005      C1006   1.413       .  A
C1005      H1018   1.078       .  S
C1006      C1012   1.432       .  A
C1007      C1009   1.400       .  A
C1007      C1008   1.404       .  A
C1008      H1019   1.085       .  S
C1009      C1010   1.390       .  A
C1009      H1020   1.084       .  S
C1010      C1011   1.398       .  A
C1010      H1021   1.084       .  S
C1011      C1016   1.406       .  A
C1012      C1013   1.416       .  A
C1013      C1014   1.401       .  A
C1013      H1022   1.078       .  S
C1014      C1015   1.403       .  A
C1014      H1023   1.083       .  S
C1016      H1024   1.085       .  S
C1025      C1026   1.405   1_455  A
C1025      C1030   1.404       .  A
C1026      C1027   1.410       .  A
C1026      H1039   1.081       .  S
C1027      C1028   1.418       .  A
C1027      H1040   1.078       .  S
C1028      C1034   1.445       .  A
C1028      C1029   1.425       .  A
C1029      C1031   1.398       .  A
C1029      C1030   1.411   1_655  A
C1030      H1041   1.084       .  S
C1031      C1032   1.390       .  A
C1031      H1042   1.084   1_655  S
C1032      C1033   1.400       .  A
C1032      H1043   1.084       .  S
C1033      C1034   1.422       .  A
C1033      C1038   1.408       .  A
C1034      C1035   1.422       .  A
C1035      C1036   1.414       .  A
C1035      H1044   1.078       .  S
C1036      C1037   1.405       .  A
C1036      H1045   1.083       .  S
C1037      C1038   1.407       .  A
C1038      H1046   1.084       .  S
C1047      C1048   1.405       .  A
C1047      C1052   1.404   1_554  A
C1048      C1049   1.400       .  A
C1048      H1061   1.084       .  S
C1049      C1050   1.414   1_554  A
C1049      H1062   1.078       .  S
C1050      C1056   1.439       .  A
C1050      C1051   1.425       .  A
C1051      C1053   1.401       .  A
C1051      C1052   1.417       .  A
C1052      H1063   1.084       .  S
C1053      C1054   1.395       .  A
C1053      H1064   1.084       .  S
C1054      C1055   1.402       .  A
C1054      H1065   1.084       .  S
C1055      C1056   1.423       .  A
C1055      C1060   1.414       .  A
C1056      C1057   1.417       .  A
C1057      C1058   1.402   1_545  A
C1057      H1066   1.078   1_545  S
C1058      C1059   1.400       .  A
C1058      H1067   1.082       .  S
C1059      C1060   1.404   1_565  A
C1060      H1068   1.082       .  S
