geometry optimzed in LAMMPS
_audit_creation_date              2020-11-30 
_audit_creation_method            'lammps2cif' 
_symmetry_space_group_name_H-M    'P1' 
_symmetry_Int_Tables_number       1 
_symmetry_cell_setting            triclinic 
loop_ 
_symmetry_equiv_pos_as_xyz 
  x,y,z 
_cell_length_a                    32.09427274 
_cell_length_b                    32.09008683350433 
_cell_length_c                    64.1671290718895 
_cell_angle_alpha                 90.08352084444387 
_cell_angle_beta                  89.93643195335989 
_cell_angle_gamma                 89.29466706653153 
loop_ 
_atom_site_label 
_atom_site_type_symbol 
_atom_site_fract_x 
_atom_site_fract_y 
_atom_site_fract_z 
_atom_site_charge 
O1          O  0.03474837  0.06039329  0.12519811    -0.72600
O2          O  0.03486950  0.94099444  0.12523587    -0.72600
O3          O  0.03479146  0.00058459  0.09536819    -0.72700
O4          O  0.03478201  0.00084365  0.15508232    -0.72700
O5          O  0.96517774  0.00162956  0.15510205    -0.72700
O6          O  0.96518627  0.00138009  0.09540571    -0.72700
O7          O  0.96526809  0.94176400  0.12526670    -0.72600
O8          O  0.96514440  0.06119566  0.12523401    -0.72700
Ni9        Ni  0.03729989  0.00066983  0.12522187     1.25400
Ni10       Ni  0.96269295  0.00151448  0.12525567     1.25400
C11         C  0.99993339  0.08025854  0.12519607     0.89600
C12         C  0.00009669  0.92190801  0.12524347     0.89500
C13         C  0.99998712  0.00096662  0.08565554     0.89500
C14         C  0.99996494  0.00133022  0.16482441     0.89700
O15         O  0.96581100  0.50152696  0.09537722    -0.72600
O16         O  0.96565141  0.50143985  0.15508473    -0.72600
O17         O  0.96580980  0.56119988  0.12528459    -0.72700
O18         O  0.96568971  0.44177624  0.12514092    -0.72700
O19         O  0.03529248  0.44086181  0.12514642    -0.72700
O20         O  0.03541139  0.56026390  0.12529199    -0.72700
O21         O  0.03525256  0.50051353  0.15509213    -0.72600
O22         O  0.03541631  0.50060495  0.09537472    -0.72700
Ni23       Ni  0.96323919  0.50151898  0.12522528     1.25400
Ni24       Ni  0.03784430  0.50052748  0.12523036     1.25400
C25         C  0.00063160  0.50106328  0.08564509     0.89600
C26         C  0.00042442  0.50098028  0.16482547     0.89500
C27         C  0.00063502  0.58020135  0.12529093     0.89500
C28         C  0.00047723  0.42185378  0.12509170     0.89700
O29         O  0.46625898  0.06140418  0.12520177    -0.72600
O30         O  0.46586284  0.94198152  0.12554321    -0.72600
O31         O  0.46668848  0.00209615  0.15520277    -0.72700
O32         O  0.46542153  0.00129931  0.09548751    -0.72700
O33         O  0.53501709  0.00020747  0.09508411    -0.72700
O34         O  0.53628927  0.00100508  0.15479343    -0.72700
O35         O  0.53546112  0.94091257  0.12513788    -0.72600
O36         O  0.53585638  0.06030169  0.12479562    -0.72700
Ni37       Ni  0.46355323  0.00173234  0.12536550     1.25400
Ni38       Ni  0.53815281  0.00056506  0.12493002     1.25400
C39         C  0.50112806  0.08032107  0.12498830     0.89600
C40         C  0.50060876  0.92198292  0.12545569     0.89500
C41         C  0.50169805  0.00166545  0.16472896     0.89500
C42         C  0.50001576  0.00066877  0.08554759     0.89700
O43         O  0.46675221  0.44171996  0.12515312    -0.72600
O44         O  0.46618306  0.56115992  0.12529190    -0.72600
O45         O  0.46634081  0.50146588  0.09534639    -0.72700
O46         O  0.46654404  0.50141055  0.15505647    -0.72700
O47         O  0.53614680  0.50088621  0.15495847    -0.72700
O48         O  0.53594022  0.50093192  0.09523221    -0.72700
O49         O  0.53578412  0.56060522  0.12518773    -0.72600
O50         O  0.53635287  0.44120135  0.12505380    -0.72700
Ni51       Ni  0.46395333  0.50145774  0.12520783     1.25400
Ni52       Ni  0.53855571  0.50088729  0.12509710     1.25400
C53         C  0.50165031  0.42199069  0.12511721     0.89600
C54         C  0.50090330  0.58035060  0.12532441     0.89500
C55         C  0.50109520  0.50118088  0.08555154     0.89500
C56         C  0.50137635  0.50116812  0.16474089     0.89700
O57         O  0.96531138  0.94050741  0.87544032    -0.72600
O58         O  0.96523171  0.05991835  0.87538654    -0.72600
O59         O  0.96483266  0.00010927  0.84555945    -0.72700
O60         O  0.96569081  0.00035270  0.90525896    -0.72700
O61         O  0.03529370  0.99954283  0.90498501    -0.72700
O62         O  0.03443441  0.99929003  0.84527070    -0.72700
O63         O  0.03483334  0.05910924  0.87509982    -0.72600
O64         O  0.03491105  0.93969120  0.87515789    -0.72700
Ni65       Ni  0.96276814  0.00024651  0.87542149     1.25400
Ni66       Ni  0.03737213  0.99937462  0.87511739     1.25400
C67         C  0.00012293  0.92062905  0.87532075     0.89600
C68         C  0.00001801  0.07897870  0.87522692     0.89500
C69         C  0.99949151  0.99970171  0.83568184     0.89500
C70         C  0.00062084  0.00000294  0.91485390     0.89700
O71         O  0.96510704  0.55986149  0.87553232    -0.72600
O72         O  0.96524238  0.44045128  0.87526808    -0.72600
O73         O  0.96547956  0.49999045  0.90524815    -0.72700
O74         O  0.96487628  0.50032272  0.84555320    -0.72700
O75         O  0.03448250  0.49954652  0.84534912    -0.72700
O76         O  0.03508513  0.49920862  0.90504050    -0.72700
O77         O  0.03484486  0.43966295  0.87505562    -0.72600
O78         O  0.03470863  0.55908337  0.87532295    -0.72700
Ni79       Ni  0.96267450  0.50018105  0.87540914     1.25400
Ni80       Ni  0.03728248  0.49934421  0.87518500     1.25400
C81         C  0.99988543  0.57894175  0.87547026     0.89600
C82         C  0.00006128  0.42059132  0.87510795     0.89500
C83         C  0.00037649  0.49958451  0.91487337     0.89500
C84         C  0.99958825  0.49999162  0.83572303     0.89700
O85         O  0.53413026  0.94017198  0.87500608    -0.72600
O86         O  0.53429348  0.05958830  0.87516858    -0.72600
O87         O  0.53401651  0.99983246  0.90494159    -0.72700
O88         O  0.53441460  0.99998256  0.84521592    -0.72700
O89         O  0.46481458  0.00093384  0.84513898    -0.72700
O90         O  0.46441655  0.00079104  0.90486640    -0.72700
O91         O  0.46469098  0.06052760  0.87508977    -0.72600
O92         O  0.46453002  0.94112034  0.87493149    -0.72700
Ni93       Ni  0.53671477  0.99984858  0.87508192     1.25400
Ni94       Ni  0.46211334  0.00086582  0.87500011     1.25400
C95         C  0.49930453  0.92117596  0.87496900     0.89600
C96         C  0.49951340  0.07952255  0.87517829     0.89500
C97         C  0.49915266  0.00035215  0.91464240     0.89500
C98         C  0.49968005  0.00056505  0.83543990     0.89700
O99         O  0.53373910  0.44019647  0.87511651    -0.72600
O100        O  0.53369928  0.55960293  0.87519886    -0.72600
O101        O  0.53344871  0.49989773  0.90500334    -0.72700
O102        O  0.53398371  0.49987527  0.84529116    -0.72700
O103        O  0.46438137  0.50070686  0.84518333    -0.72700
O104        O  0.46384676  0.50073600  0.90490130    -0.72700
O105        O  0.46409840  0.56044453  0.87508560    -0.72600
O106        O  0.46413686  0.44102118  0.87500666    -0.72700
Ni107      Ni  0.53621681  0.49986658  0.87515357     1.25400
Ni108      Ni  0.46161307  0.50076033  0.87503659     1.25400
C109        C  0.49894828  0.42114293  0.87507171     0.89600
C110        C  0.49889553  0.57949348  0.87517319     0.89500
C111        C  0.49856991  0.50031049  0.91468746     0.89500
C112        C  0.49926481  0.50025146  0.83550282     0.89700
O113        O  0.06046048  0.96652767  0.37485307    -0.72600
O114        O  0.94106289  0.96602293  0.37529247    -0.72600
O115        O  0.00033436  0.96675147  0.34520980    -0.72700
O116        O  0.00111236  0.96579157  0.40491735    -0.72700
O117        O  0.99996293  0.03540056  0.40524947    -0.72700
O118        O  0.99918797  0.03636019  0.34553897    -0.72700
O119        O  0.93991965  0.03563214  0.37561928    -0.72600
O120        O  0.05932324  0.03613314  0.37518102    -0.72700
Ni121      Ni  0.00079565  0.96377348  0.37505303     1.25400
Ni122      Ni  0.99956944  0.03838317  0.37540610     1.25400
C123        C  0.07936448  0.00140873  0.37497289     0.89600
C124        C  0.92102975  0.00074661  0.37553902     0.89500
C125        C  0.99955828  0.00171079  0.33564110     0.89500
C126        C  0.00058379  0.00043757  0.41481711     0.89700
O127        O  0.00097340  0.46620986  0.34541904    -0.72600
O128        O  0.00079138  0.46613495  0.40515590    -0.72600
O129        O  0.94120310  0.46646469  0.37529586    -0.72700
O130        O  0.06058006  0.46579553  0.37529817    -0.72700
O131        O  0.06014689  0.53540350  0.37537423    -0.72700
O132        O  0.94069113  0.53607354  0.37536897    -0.72700
O133        O  0.00031786  0.53574352  0.40522192    -0.72600
O134        O  0.00050641  0.53581714  0.34550448    -0.72700
Ni135      Ni  0.00090687  0.46365349  0.37528681     1.25400
Ni136      Ni  0.00040231  0.53826208  0.37536715     1.25400
C137        C  0.00077055  0.50103666  0.33572261     0.89600
C138        C  0.00048056  0.50093517  0.41492633     0.89500
C139        C  0.92147776  0.50135886  0.37536392     0.89500
C140        C  0.07983359  0.50047434  0.37534180     0.89700
O141        O  0.56027809  0.96566410  0.37536398    -0.72600
O142        O  0.44086275  0.96616115  0.37475369    -0.72600
O143        O  0.50131872  0.96596061  0.34519605    -0.72700
O144        O  0.49987691  0.96585620  0.40489078    -0.72700
O145        O  0.49928903  0.03547159  0.40498014    -0.72700
O146        O  0.50075771  0.03557372  0.34528888    -0.72700
O147        O  0.44029595  0.03576980  0.37483329    -0.72600
O148        O  0.55969976  0.03527560  0.37545745    -0.72700
Ni149      Ni  0.50059760  0.96340723  0.37504403     1.25400
Ni150      Ni  0.49998343  0.03802289  0.37513860     1.25400
C151        C  0.57945321  0.00039219  0.37551093     0.89600
C152        C  0.42110588  0.00104835  0.37474675     0.89500
C153        C  0.50136030  0.00079020  0.33551274     0.89500
C154        C  0.49935152  0.00064344  0.41466300     0.89700
O155        O  0.56101525  0.46539778  0.37498512    -0.72600
O156        O  0.44163928  0.46462058  0.37499870    -0.72600
O157        O  0.50138533  0.46554924  0.34512437    -0.72700
O158        O  0.50130900  0.46454697  0.40484458    -0.72700
O159        O  0.50000684  0.53415748  0.40515768    -0.72700
O160        O  0.50007938  0.53515762  0.34546969    -0.72700
O161        O  0.44031580  0.53422633  0.37533501    -0.72600
O162        O  0.55973870  0.53500510  0.37531986    -0.72700
Ni163      Ni  0.50137794  0.46252632  0.37497209     1.25400
Ni164      Ni  0.49998143  0.53713666  0.37532950     1.25400
C165        C  0.57984277  0.50031370  0.37517964     0.89600
C166        C  0.42150955  0.49928804  0.37518646     0.89500
C167        C  0.50078850  0.50052343  0.33556412     0.89500
C168        C  0.50068686  0.49921211  0.41473210     0.89700
O169        O  0.93980423  0.03510762  0.62515405    -0.72600
O170        O  0.05921248  0.03521747  0.62538998    -0.72600
O171        O  0.99978469  0.03508078  0.59540080    -0.72700
O172        O  0.99918317  0.03522663  0.65512385    -0.72700
O173        O  0.00009869  0.96561471  0.65510883    -0.72700
O174        O  0.00070494  0.96547023  0.59540014    -0.72700
O175        O  0.06012749  0.96560832  0.62538010    -0.72600
O176        O  0.94072457  0.96549676  0.62514178    -0.72700
Ni177      Ni  0.99947116  0.03766128  0.62526490     1.25400
Ni178      Ni  0.00045531  0.96304896  0.62525490     1.25400
C179        C  0.92079858  0.00028402  0.62512909     0.89600
C180        C  0.07913957  0.00042909  0.62543752     0.89500
C181        C  0.00028050  0.00024415  0.58566462     0.89500
C182        C  0.99949918  0.00043926  0.66485046     0.89700
O183        O  0.99956693  0.46597167  0.59568756    -0.72600
O184        O  0.00037915  0.46720508  0.65538713    -0.72600
O185        O  0.94024753  0.46667244  0.62581166    -0.72700
O186        O  0.05967976  0.46655393  0.62531797    -0.72700
O187        O  0.05886832  0.53616137  0.62502109    -0.72700
O188        O  0.93948033  0.53627804  0.62551071    -0.72700
O189        O  0.99957967  0.53681672  0.65510533    -0.72600
O190        O  0.99877457  0.53557828  0.59539442    -0.72700
Ni191      Ni  0.99999674  0.46409755  0.62555700     1.25400
Ni192      Ni  0.99914731  0.53870713  0.62524087     1.25400
C193        C  0.99906235  0.50058185  0.58580480     0.89600
C194        C  0.00008677  0.50219372  0.66497525     0.89500
C195        C  0.92039313  0.50150717  0.62578109     0.89500
C196        C  0.07874028  0.50134780  0.62512185     0.89700
O197        O  0.43982136  0.03527395  0.62481809    -0.72600
O198        O  0.55924256  0.03534129  0.62470367    -0.72600
O199        O  0.49947527  0.03441516  0.59491819    -0.72700
O200        O  0.49956112  0.03623779  0.65461098    -0.72700
O201        O  0.50045265  0.96663403  0.65507994    -0.72700
O202        O  0.50037353  0.96480840  0.59536869    -0.72700
O203        O  0.56012298  0.96573908  0.62517373    -0.72600
O204        O  0.44072489  0.96567116  0.62528424    -0.72700
Ni205      Ni  0.49949721  0.03781681  0.62474278     1.25400
Ni206      Ni  0.50045512  0.96321105  0.62524203     1.25400
C207        C  0.42080532  0.00045814  0.62508140     0.89600
C208        C  0.57915181  0.00054493  0.62493763     0.89500
C209        C  0.49986933  0.99933478  0.58541373     0.89500
C210        C  0.50000541  0.00172971  0.66457935     0.89700
O211        O  0.44031120  0.46567266  0.62478788    -0.72600
O212        O  0.55974871  0.46590127  0.62517769    -0.72600
O213        O  0.49959906  0.46537793  0.65481718    -0.72700
O214        O  0.50047167  0.46612311  0.59512815    -0.72700
O215        O  0.49947154  0.53573513  0.59537619    -0.72700
O216        O  0.49861074  0.53499005  0.65508882    -0.72700
O217        O  0.55872692  0.53550943  0.62543655    -0.72600
O218        O  0.43935342  0.53528224  0.62505297    -0.72700
Ni219      Ni  0.50006491  0.46326623  0.62496306     1.25400
Ni220      Ni  0.49900154  0.53787928  0.62524369     1.25400
C221        C  0.42036630  0.50045570  0.62488171     0.89600
C222        C  0.57870725  0.50075511  0.62540790     0.89500
C223        C  0.49900368  0.50005641  0.66468422     0.89500
C224        C  0.50011819  0.50103548  0.58552104     0.89700
C225        C  0.70584680  0.50162354  0.62608554     0.18800
C226        C  0.72770256  0.51536422  0.60852644    -0.10300
C227        C  0.77128451  0.51554663  0.60861505    -0.11100
C228        C  0.79322921  0.50198582  0.62626251     0.20400
C229        C  0.77137910  0.48838139  0.64385639    -0.13200
C230        C  0.72778068  0.48819927  0.64376779    -0.11400
C231        C  0.83809980  0.50180215  0.62624190     0.01400
C232        C  0.87567833  0.50160973  0.62606481    -0.31500
C233        C  0.66098724  0.50119543  0.62591369     0.02700
C234        C  0.62341765  0.50090183  0.62567785    -0.33100
H235        H  0.71107184  0.52583053  0.59477388     0.13800
H236        H  0.78785014  0.52613749  0.59492736     0.13600
H237        H  0.78802089  0.47783563  0.65758994     0.13500
H238        H  0.71120688  0.47752929  0.65743687     0.12500
C239        C  0.20586656  0.50130219  0.62509509     0.18800
C240        C  0.22803090  0.47020101  0.63584399    -0.10300
C241        C  0.27161822  0.47001289  0.63579458    -0.11100
C242        C  0.29323501  0.50092378  0.62499526     0.20400
C243        C  0.27107224  0.53208418  0.61428524    -0.13200
C244        C  0.22748074  0.53227247  0.61433463    -0.11400
C245        C  0.33809150  0.50063841  0.62489094     0.01400
C246        C  0.37566297  0.50044669  0.62484237    -0.31500
C247        C  0.16101225  0.50136328  0.62506757     0.02700
C248        C  0.12344326  0.50134136  0.62505772    -0.33100
H249        H  0.21163821  0.44611524  0.64422310     0.13800
H250        H  0.28843702  0.44578938  0.64413960     0.13600
H251        H  0.28746798  0.55615301  0.60589529     0.13500
H252        H  0.21065941  0.55647972  0.60597897     0.12500
C253        C  0.79366956  0.00014574  0.62520547     0.18800
C254        C  0.77215876  0.97036222  0.61356343    -0.10300
C255        C  0.72856973  0.97042673  0.61353420    -0.11100
C256        C  0.70629655  0.00027572  0.62514672     0.20400
C257        C  0.72780868  0.03000469  0.63682517    -0.13200
C258        C  0.77139919  0.02994005  0.63685439    -0.11400
C259        C  0.66143548  0.00043671  0.62505047     0.01400
C260        C  0.62386158  0.00053885  0.62497188    -0.31500
C261        C  0.83852563  0.00018681  0.62516237     0.02700
C262        C  0.87609542  0.00023828  0.62512191    -0.33100
H263        H  0.78906005  0.94717064  0.60450742     0.13800
H264        H  0.71226049  0.94728277  0.60445652     0.13600
H265        H  0.71090702  0.05321510  0.64586938     0.13500
H266        H  0.78771033  0.05310217  0.64591976     0.12500
C267        C  0.20628948  0.00032990  0.62554574     0.18800
C268        C  0.22813596  0.01177594  0.64352136    -0.10300
C269        C  0.27173054  0.01175347  0.64344165    -0.11100
C270        C  0.29366682  0.00028620  0.62538664     0.20400
C271        C  0.27181808  0.98880050  0.60742123    -0.13200
C272        C  0.22823113  0.98882298  0.60750091    -0.11400
C273        C  0.33852616  0.00035343  0.62527972     0.01400
C274        C  0.37609790  0.00041730  0.62517552    -0.31500
C275        C  0.16142570  0.00042203  0.62559451     0.02700
C276        C  0.12385069  0.00045752  0.62555012    -0.33100
H277        H  0.21149373  0.02072251  0.65756209     0.13800
H278        H  0.28830379  0.02068498  0.65742214     0.13600
H279        H  0.28845578  0.97987410  0.59337582     0.13500
H280        H  0.21166306  0.97991146  0.59351573     0.12500
C281        C  0.50083256  0.49963773  0.47828740     0.18800
C282        C  0.53858199  0.50039684  0.48922403    -0.10300
C283        C  0.53852958  0.50094047  0.51102174    -0.11100
C284        C  0.50072732  0.50074051  0.52196532     0.20400
C285        C  0.46298453  0.50001534  0.51102672    -0.13200
C286        C  0.46303674  0.49947164  0.48923290    -0.11400
C287        C  0.50064272  0.50113102  0.54438889     0.01400
C288        C  0.50044257  0.50123819  0.56317348    -0.31500
C289        C  0.50085468  0.49913112  0.45586417     0.02700
C290        C  0.50078234  0.49895386  0.43707956    -0.33100
H291        H  0.56798502  0.50056031  0.48091294     0.13800
H292        H  0.56789232  0.50148828  0.51932757     0.13600
H293        H  0.43357955  0.49984368  0.51933540     0.13500
H294        H  0.43367083  0.49891475  0.48092990     0.12500
C295        C  0.49918039  0.99916822  0.52186871     0.18800
C296        C  0.47100161  0.97443728  0.51086993    -0.10300
C297        C  0.47076950  0.97490424  0.48907440    -0.11100
C298        C  0.49870852  0.00011046  0.47820033     0.20400
C299        C  0.52684194  0.02488061  0.48920059    -0.13200
C300        C  0.52707426  0.02441342  0.51099135    -0.11400
C301        C  0.49866580  0.00042037  0.45578328     0.01400
C302        C  0.49887768  0.00058305  0.43700303    -0.31500
C303        C  0.49943437  0.99874649  0.54428752     0.02700
C304        C  0.49967519  0.99876303  0.56306988    -0.33100
H305        H  0.44927960  0.95482771  0.51913021     0.13800
H306        H  0.44889310  0.95562452  0.48071638     0.13600
H307        H  0.54858236  0.04447536  0.48094233     0.13500
H308        H  0.54896973  0.04367826  0.51934586     0.12500
C309        C  0.99971564  0.50076226  0.47851671     0.18800
C310        C  0.96409791  0.51407782  0.48941698    -0.10300
C311        C  0.96380950  0.51381614  0.51121959    -0.11100
C312        C  0.99913610  0.50023611  0.52221608     0.20400
C313        C  0.03475547  0.48694268  0.51131447    -0.13200
C314        C  0.03504395  0.48720446  0.48951487    -0.11400
C315        C  0.99890845  0.50008784  0.54465262     0.01400
C316        C  0.99888687  0.50017178  0.56344493    -0.31500
C317        C  0.99999765  0.50091468  0.45608010     0.02700
C318        C  0.00025231  0.50093534  0.43728781    -0.33100
H319        H  0.93660647  0.52462603  0.48107316     0.13800
H320        H  0.93610900  0.52419160  0.51948866     0.13600
H321        H  0.06225432  0.47640996  0.51965638     0.13500
H322        H  0.06275283  0.47684437  0.48124792     0.12500
C323        C  0.79434297  0.50101460  0.37564527     0.18800
C324        C  0.77189928  0.52995944  0.38773532    -0.10300
C325        C  0.72831059  0.52976793  0.38769610    -0.11100
C326        C  0.70697459  0.50063060  0.37556747     0.20400
C327        C  0.72942105  0.47160478  0.36352790    -0.13200
C328        C  0.77300604  0.47179619  0.36356715    -0.11400
C329        C  0.66211660  0.50059441  0.37542388     0.01400
C330        C  0.62454609  0.50054074  0.37528622    -0.31500
C331        C  0.83919745  0.50135825  0.37557778     0.02700
C332        C  0.87676781  0.50151279  0.37546975    -0.33100
H333        H  0.78807268  0.55267539  0.39714169     0.13800
H334        H  0.71127290  0.55233931  0.39707253     0.13600
H335        H  0.71324977  0.44892250  0.35410003     0.13500
H336        H  0.79004056  0.44925822  0.35416915     0.12500
C337        C  0.20698716  0.49919816  0.37534244     0.18800
C338        C  0.22888546  0.50064506  0.35645807    -0.10300
C339        C  0.27247666  0.50037676  0.35644115    -0.11100
C340        C  0.29436969  0.49865840  0.37530826     0.20400
C341        C  0.27247372  0.49709050  0.39419206    -0.13200
C342        C  0.22887835  0.49735871  0.39420892    -0.11400
C343        C  0.33923135  0.49873280  0.37528816     0.01400
C344        C  0.37680248  0.49896576  0.37524241    -0.31500
C345        C  0.16212240  0.49971497  0.37535852     0.02700
C346        C  0.12454599  0.50014871  0.37535479    -0.33100
H347        H  0.21228245  0.50205486  0.34177870     0.13800
H348        H  0.28908320  0.50159602  0.34174922     0.13600
H349        H  0.28907862  0.49575257  0.40887228     0.13500
H350        H  0.21226851  0.49621171  0.40890179     0.12500
C351        C  0.00002526  0.99976799  0.52208331     0.18800
C352        C  0.97600249  0.02917905  0.51114084    -0.10300
C353        C  0.97605444  0.02912969  0.48934126    -0.11100
C354        C  0.00012973  0.99967071  0.47838972     0.20400
C355        C  0.02406246  0.97018404  0.48933047    -0.13200
C356        C  0.02401053  0.97023334  0.51113147    -0.11400
C357        C  0.00038834  0.99981293  0.45595890     0.01400
C358        C  0.00056863  0.00007025  0.43717085    -0.31500
C359        C  0.00015457  0.99997208  0.54451640     0.02700
C360        C  0.00027151  0.00014948  0.56330655    -0.33100
H361        H  0.95732884  0.05214498  0.51945009     0.13800
H362        H  0.95742343  0.05206175  0.48103865     0.13600
H363        H  0.04278199  0.94725723  0.48101978     0.13500
H364        H  0.04268730  0.94733953  0.51943454     0.12500
C365        C  0.70657026  0.00012688  0.37591988     0.18800
C366        C  0.72891449  0.96928260  0.36501066    -0.10300
C367        C  0.77249784  0.96935813  0.36501144    -0.11100
C368        C  0.79392663  0.00027793  0.37592087     0.20400
C369        C  0.77158517  0.03109880  0.38684929    -0.13200
C370        C  0.72799869  0.03102323  0.38684855    -0.11400
C371        C  0.83877323  0.00043310  0.37585009     0.01400
C372        C  0.87633687  0.00056482  0.37572690    -0.31500
C373        C  0.66171977  0.00014642  0.37584393     0.02700
C374        C  0.62415246  0.00022254  0.37571996    -0.33100
H375        H  0.71266437  0.94525241  0.35650329     0.13800
H376        H  0.78946038  0.94538466  0.35650565     0.13600
H377        H  0.78783670  0.05515939  0.39533351     0.13500
H378        H  0.71103486  0.05502776  0.39533149     0.12500
C379        C  0.29393117  0.00142819  0.37488679     0.18800
C380        C  0.27241989  0.96573136  0.36873195    -0.10300
C381        C  0.22882809  0.96578502  0.36876497    -0.11100
C382        C  0.20653605  0.00153682  0.37495384     0.20400
C383        C  0.22804440  0.03721738  0.38114265    -0.13200
C384        C  0.27164295  0.03716383  0.38110959    -0.11400
C385        C  0.16166309  0.00160771  0.37493156     0.01400
C386        C  0.12408329  0.00157372  0.37491740    -0.31500
C387        C  0.33880316  0.00137879  0.37479139     0.02700
C388        C  0.37638420  0.00124294  0.37471804    -0.33100
H389        H  0.28932651  0.93792139  0.36389955     0.13800
H390        H  0.21252986  0.93801540  0.36395801     0.13600
H391        H  0.21113419  0.06502979  0.38596708     0.13500
H392        H  0.28794481  0.06493638  0.38590853     0.12500
C393        C  0.49903430  0.49939772  0.72824396     0.18800
C394        C  0.53688083  0.49979483  0.73910474    -0.10300
C395        C  0.53702377  0.49990765  0.76090342    -0.11100
C396        C  0.49932004  0.49962398  0.77193040     0.20400
C397        C  0.46147643  0.49914935  0.76106770    -0.13200
C398        C  0.46133364  0.49903660  0.73926960    -0.11400
C399        C  0.49944782  0.49988292  0.79435987     0.01400
C400        C  0.49943747  0.50009787  0.81314811    -0.31500
C401        C  0.49888882  0.49952416  0.70581789     0.02700
C402        C  0.49885926  0.49975396  0.68703269    -0.33100
H403        H  0.56621198  0.50007800  0.73073261     0.13800
H404        H  0.56646344  0.50026399  0.76914566     0.13600
H405        H  0.43214287  0.49891598  0.76943865     0.13500
H406        H  0.43189293  0.49872977  0.73102652     0.12500
C407        C  0.50018791  0.00261063  0.72815738     0.18800
C408        C  0.47134886  0.02723125  0.73921988    -0.10300
C409        C  0.47131620  0.02689315  0.76102267    -0.11100
C410        C  0.50011599  0.00192765  0.77185360     0.20400
C411        C  0.52901228  0.97738879  0.76078760    -0.13200
C412        C  0.52904566  0.97772784  0.73898983    -0.11400
C413        C  0.49995922  0.00139647  0.79428820     0.01400
C414        C  0.49983112  0.00093215  0.81307893    -0.31500
C415        C  0.50005554  0.00267411  0.70572390     0.02700
C416        C  0.50000836  0.00238419  0.68693414    -0.33100
H417        H  0.44888868  0.04658078  0.73100337     0.13800
H418        H  0.44883933  0.04599796  0.76942039     0.13600
H419        H  0.55142523  0.95797682  0.76900012     0.13500
H420        H  0.55147541  0.95856249  0.73059409     0.12500
C421        C  0.49911527  0.70664250  0.87534077     0.18800
C422        C  0.53088462  0.72801680  0.86504600    -0.10300
C423        C  0.53095552  0.77160873  0.86499353    -0.11100
C424        C  0.49925431  0.79402380  0.87523404     0.20400
C425        C  0.46752216  0.77265065  0.88556089    -0.13200
C426        C  0.46745133  0.72905504  0.88561329    -0.11400
C427        C  0.49924816  0.83888728  0.87511220     0.01400
C428        C  0.49925201  0.87646347  0.87501472    -0.31500
C429        C  0.49897078  0.66178093  0.87531920     0.02700
C430        C  0.49889848  0.62420550  0.87525590    -0.33100
H431        H  0.55552543  0.71100500  0.85705668     0.13800
H432        H  0.55565146  0.78780995  0.85696535     0.13600
H433        H  0.44286371  0.78966466  0.89353512     0.13500
H434        H  0.44273770  0.71285110  0.89362669     0.12500
C435        C  0.49939354  0.20664693  0.87551487     0.18800
C436        C  0.53706901  0.22815138  0.87446581    -0.10300
C437        C  0.53696663  0.27174283  0.87441074    -0.11100
C438        C  0.49918714  0.29401537  0.87540490     0.20400
C439        C  0.46151589  0.27251097  0.87650178    -0.13200
C440        C  0.46161821  0.22891883  0.87655679    -0.11400
C441        C  0.49906970  0.33886937  0.87525762     0.01400
C442        C  0.49898338  0.37644009  0.87513956    -0.31500
C443        C  0.49949117  0.16179292  0.87543633     0.02700
C444        C  0.49954598  0.12422272  0.87531595    -0.33100
H445        H  0.56645604  0.21124229  0.87365849     0.13800
H446        H  0.56627757  0.28805330  0.87356639     0.13600
H447        H  0.43212599  0.28942012  0.87728429     0.13500
H448        H  0.43230490  0.21260736  0.87737603     0.12500
C449        C  0.00001440  0.50197026  0.72851716     0.18800
C450        C  0.03406937  0.51744895  0.73961972    -0.10300
C451        C  0.03388095  0.51690348  0.76141246    -0.11100
C452        C  0.99964177  0.50087413  0.77218464     0.20400
C453        C  0.96559935  0.48536658  0.76108230    -0.13200
C454        C  0.96578718  0.48591278  0.73928947    -0.11400
C455        C  0.99943214  0.50041221  0.79460136     0.01400
C456        C  0.99940339  0.50016001  0.81338185    -0.31500
C457        C  0.00021399  0.50245223  0.70609969     0.02700
C458        C  0.00024683  0.50255565  0.68731799    -0.33100
H459        H  0.06070373  0.52990697  0.73144153     0.13800
H460        H  0.06036593  0.52896549  0.76985001     0.13600
H461        H  0.93897074  0.47289644  0.76926030     0.13500
H462        H  0.93930704  0.47384087  0.73085237     0.12500
C463        C  0.99891084  0.99999689  0.77211262     0.18800
C464        C  0.96271627  0.01137434  0.76121604    -0.10300
C465        C  0.96271187  0.01151205  0.73941424    -0.11100
C466        C  0.99890372  0.00027599  0.72842327     0.20400
C467        C  0.03508707  0.98889737  0.73932316    -0.13200
C468        C  0.03509096  0.98875914  0.76111937    -0.11400
C469        C  0.99895169  0.00041790  0.70599302     0.01400
C470        C  0.99916454  0.00046991  0.68720471    -0.31500
C471        C  0.99896437  0.99986520  0.79454191     0.02700
C472        C  0.99916458  0.99975667  0.81332926    -0.33100
H473        H  0.93456823  0.02012231  0.76956112     0.13800
H474        H  0.93455943  0.02036200  0.73114280     0.13600
H475        H  0.06324175  0.98015380  0.73098168     0.13500
H476        H  0.06324877  0.97991313  0.76938796     0.12500
C477        C  0.99986050  0.70609355  0.87556389     0.18800
C478        C  0.00557119  0.72801919  0.89422504    -0.10300
C479        C  0.00565641  0.77161545  0.89418979    -0.11100
C480        C  0.00003115  0.79347510  0.87549321     0.20400
C481        C  0.99431155  0.77154661  0.85683511    -0.13200
C482        C  0.99422625  0.72795515  0.85687028    -0.11400
C483        C  0.00011376  0.83833910  0.87544738     0.01400
C484        C  0.00014339  0.87591573  0.87538562    -0.31500
C485        C  0.99982600  0.66123004  0.87558519     0.02700
C486        C  0.99983580  0.62365354  0.87555370    -0.33100
H487        H  0.00995895  0.71143665  0.90876917     0.13800
H488        H  0.01010270  0.78824957  0.90870783     0.13600
H489        H  0.98993080  0.78812617  0.84228948     0.13500
H490        H  0.98978692  0.71132365  0.84235094     0.12500
C491        C  0.99993744  0.29346596  0.87496425     0.18800
C492        C  0.00237096  0.27141406  0.85612888    -0.10300
C493        C  0.00233330  0.22782120  0.85617557    -0.11100
C494        C  0.99986319  0.20610220  0.87505742     0.20400
C495        C  0.99738964  0.22815711  0.89388852    -0.13200
C496        C  0.99742720  0.27174374  0.89384182    -0.11400
C497        C  0.99991676  0.16124946  0.87511634     0.01400
C498        C  0.99997726  0.12367945  0.87517543    -0.31500
C499        C  0.00003627  0.33831838  0.87493636     0.02700
C500        C  0.00008871  0.37588848  0.87499059    -0.33100
H501        H  0.00431421  0.28789448  0.84144191     0.13800
H502        H  0.00425005  0.21108010  0.84152394     0.13600
H503        H  0.99546012  0.21168013  0.90857720     0.13500
H504        H  0.99552429  0.28848064  0.90849506     0.12500
C505        C  0.50141902  0.50127969  0.27199772     0.18800
C506        C  0.50623704  0.46376041  0.26101232    -0.10300
C507        C  0.50629742  0.46378797  0.23921577    -0.11100
C508        C  0.50154430  0.50133676  0.22830978     0.20400
C509        C  0.49678328  0.53887194  0.23929304    -0.13200
C510        C  0.49672245  0.53884411  0.26109428    -0.11400
C511        C  0.50149877  0.50132333  0.20588103     0.01400
C512        C  0.50144513  0.50124505  0.18709359    -0.31500
C513        C  0.50119325  0.50118398  0.29442601     0.02700
C514        C  0.50097595  0.50092099  0.31321256    -0.33100
H515        H  0.50989456  0.43453943  0.26928713     0.13800
H516        H  0.51000624  0.43458859  0.23087989     0.13600
H517        H  0.49309073  0.56808601  0.23101535     0.13500
H518        H  0.49297769  0.56803525  0.26943330     0.12500
C519        C  0.49906215  0.50055464  0.97826708     0.18800
C520        C  0.53055000  0.52149879  0.98899231    -0.10300
C521        C  0.53107390  0.52163439  0.01079078    -0.11100
C522        C  0.50011246  0.50082344  0.02196209     0.20400
C523        C  0.46861814  0.47988193  0.01123627    -0.13200
C524        C  0.46809443  0.47974660  0.98943577    -0.11400
C525        C  0.50063771  0.50098018  0.04439736     0.01400
C526        C  0.50095757  0.50110059  0.06318930    -0.31500
C527        C  0.49858399  0.50039078  0.95583477     0.02700
C528        C  0.49842686  0.50032100  0.93704469    -0.33100
H529        H  0.55465120  0.53768593  0.98051357     0.13800
H530        H  0.55556857  0.53793119  0.01892128     0.13600
H531        H  0.44451862  0.46369302  0.01971515     0.13500
H532        H  0.44360386  0.46344870  0.98130311     0.12500
C533        C  0.50266594  0.00139239  0.27196277     0.18800
C534        C  0.46521484  0.00698414  0.26106672    -0.10300
C535        C  0.46518996  0.00722265  0.23927553    -0.11100
C536        C  0.50261909  0.00187339  0.22828361     0.20400
C537        C  0.54009660  0.99633212  0.23917496    -0.13200
C538        C  0.54012158  0.99609386  0.26097647    -0.11400
C539        C  0.50250101  0.00193978  0.20585962     0.01400
C540        C  0.50218100  0.00187904  0.18707567    -0.31500
C541        C  0.50257443  0.00106059  0.29438548     0.02700
C542        C  0.50211090  0.00086401  0.31316820    -0.33100
H543        H  0.43608193  0.01111645  0.26940859     0.13800
H544        H  0.43603759  0.01152633  0.23100933     0.13600
H545        H  0.56921660  0.99216391  0.23082675     0.13500
H546        H  0.56926110  0.99175455  0.26924914     0.12500
C547        C  0.49904071  0.00066383  0.02194894     0.18800
C548        C  0.48986468  0.96412715  0.01097839    -0.10300
C549        C  0.48978444  0.96414142  0.98917636    -0.11100
C550        C  0.49887908  0.00069129  0.97824174     0.20400
C551        C  0.50801066  0.03724707  0.98921073    -0.13200
C552        C  0.50809088  0.03723290  0.01101578    -0.11400
C553        C  0.49892312  0.00063894  0.95580107     0.01400
C554        C  0.49900914  0.00049763  0.93700666    -0.31500
C555        C  0.49926902  0.00059764  0.04438945     0.02700
C556        C  0.49955956  0.00056309  0.06318356    -0.33100
H557        H  0.48282637  0.93567446  0.01926805     0.13800
H558        H  0.48268314  0.93569920  0.98085793     0.13600
H559        H  0.51509010  0.06568698  0.98091894     0.13500
H560        H  0.51523408  0.06566245  0.01933600     0.12500
C561        C  0.50073465  0.70748580  0.12587744     0.18800
C562        C  0.50944978  0.72925588  0.14428337    -0.10300
C563        C  0.50940481  0.77286242  0.14432468    -0.11100
C564        C  0.50064302  0.79485834  0.12596004     0.20400
C565        C  0.49196516  0.77307498  0.10756404    -0.13200
C566        C  0.49201028  0.72949579  0.10752280    -0.11400
C567        C  0.50056904  0.83971496  0.12594498     0.01400
C568        C  0.50051601  0.87728464  0.12574770    -0.31500
C569        C  0.50074047  0.66262829  0.12578541     0.02700
C570        C  0.50074773  0.62505696  0.12557154    -0.33100
H571        H  0.51625263  0.71254992  0.15856484     0.13800
H572        H  0.51617650  0.78939145  0.15863686     0.13600
H573        H  0.48516864  0.78976473  0.09327675     0.13500
H574        H  0.48524543  0.71298324  0.09320441     0.12500
C575        C  0.50204340  0.29483913  0.12533659     0.18800
C576        C  0.53210480  0.27249126  0.11390013    -0.10300
C577        C  0.53196251  0.22889941  0.11385535    -0.11100
C578        C  0.50175969  0.20746170  0.12524703     0.20400
C579        C  0.47175491  0.22980849  0.13672214    -0.13200
C580        C  0.47189734  0.27340114  0.13676695    -0.11400
C581        C  0.50150734  0.16260269  0.12512454     0.01400
C582        C  0.50130386  0.12502987  0.12502237    -0.31500
C583        C  0.50201694  0.33970174  0.12527158     0.02700
C584        C  0.50187811  0.37727829  0.12518521    -0.33100
H585        H  0.55556008  0.28874394  0.10500792     0.13800
H586        H  0.55531676  0.21193905  0.10493304     0.13600
H587        H  0.44826451  0.21355578  0.14559142     0.13500
H588        H  0.44850887  0.29036301  0.14566645     0.12500
C589        C  0.00052099  0.50125622  0.22841795     0.18800
C590        C  0.03600414  0.48771695  0.23929885    -0.10300
C591        C  0.03612162  0.48775926  0.26110106    -0.11100
C592        C  0.00075391  0.50133788  0.27212277     0.20400
C593        C  0.96528745  0.51492996  0.26124142    -0.13200
C594        C  0.96517047  0.51488826  0.23943802    -0.11400
C595        C  0.00082079  0.50123349  0.29456289     0.01400
C596        C  0.00082388  0.50110969  0.31335733    -0.31500
C597        C  0.00039146  0.50113649  0.20597995     0.02700
C598        C  0.00036632  0.50103375  0.18718709    -0.33100
H599        H  0.06351321  0.47711921  0.23093879     0.13800
H600        H  0.06371740  0.47718717  0.26935119     0.13600
H601        H  0.93776770  0.52549870  0.26960155     0.13500
H602        H  0.93756567  0.52543196  0.23118669     0.12500
C603        C  0.00060518  0.50011357  0.97841863     0.18800
C604        C  0.02683819  0.52711521  0.98928276    -0.10300
C605        C  0.02680699  0.52740314  0.01107817    -0.11100
C606        C  0.00054225  0.50069220  0.02209336     0.20400
C607        C  0.97428053  0.47371712  0.01122838    -0.13200
C608        C  0.97431187  0.47342933  0.98943284    -0.11400
C609        C  0.00059762  0.50090702  0.04451501     0.01400
C610        C  0.00065408  0.50102002  0.06329850    -0.31500
C611        C  0.00063703  0.49981417  0.95599879     0.02700
C612        C  0.00057797  0.49963388  0.93721675    -0.33100
H613        H  0.04727720  0.54788878  0.98091608     0.13800
H614        H  0.04723210  0.54838703  0.01932767     0.13600
H615        H  0.95384632  0.45293776  0.01959449     0.13500
H616        H  0.95389188  0.45244111  0.98118282     0.12500
C617        C  0.99894353  0.00249210  0.27207303     0.18800
C618        C  0.96174756  0.99686987  0.26106164    -0.10300
C619        C  0.96196870  0.99676209  0.23926003    -0.11100
C620        C  0.99938291  0.00227368  0.22838644     0.20400
C621        C  0.03654901  0.00799756  0.23939967    -0.13200
C622        C  0.03632822  0.00810548  0.26119492    -0.11400
C623        C  0.99967225  0.00193417  0.20596019     0.01400
C624        C  0.99989626  0.00161545  0.18717463    -0.31500
C625        C  0.99884330  0.00231624  0.29450214     0.02700
C626        C  0.99908807  0.00206522  0.31328914    -0.33100
H627        H  0.93266212  0.99250273  0.26931580     0.13800
H628        H  0.93304905  0.99232056  0.23089673     0.13600
H629        H  0.06564950  0.01229649  0.23114876     0.13500
H630        H  0.06526444  0.01247890  0.26955354     0.12500
C631        C  0.00019374  0.00078040  0.02209724     0.18800
C632        C  0.02733722  0.02676813  0.01118058    -0.10300
C633        C  0.02757270  0.02659828  0.98938304    -0.11100
C634        C  0.00066526  0.00043863  0.97841496     0.20400
C635        C  0.97350775  0.97446509  0.98933234    -0.13200
C636        C  0.97327238  0.97463500  0.01112950    -0.11400
C637        C  0.00087352  0.00027890  0.95598916     0.01400
C638        C  0.00088168  0.00014366  0.93720337    -0.31500
C639        C  0.00002940  0.00088459  0.04452203     0.02700
C640        C  0.99998201  0.00093233  0.06330707    -0.33100
H641        H  0.04828510  0.04710315  0.01950872     0.13800
H642        H  0.04868874  0.04681390  0.98109566     0.13600
H643        H  0.95256489  0.95412385  0.98100501     0.13500
H644        H  0.95216183  0.95441318  0.01941685     0.12500
C645        C  0.00056881  0.79474341  0.12512878     0.18800
C646        C  0.02725214  0.77263722  0.13852241    -0.10300
C647        C  0.02735572  0.72903957  0.13853566    -0.11100
C648        C  0.00077749  0.70735408  0.12515484     0.20400
C649        C  0.97414688  0.72945980  0.11173612    -0.13200
C650        C  0.97404325  0.77305607  0.11172288    -0.11400
C651        C  0.00076497  0.66248920  0.12522117     0.01400
C652        C  0.00069996  0.62491317  0.12527232    -0.31500
C653        C  0.00035372  0.83961206  0.12516797     0.02700
C654        C  0.00018258  0.87719197  0.12521078    -0.33100
H655        H  0.04789931  0.78908259  0.14894961     0.13800
H656        H  0.04808106  0.71226835  0.14897326     0.13600
H657        H  0.95347327  0.71301474  0.10132181     0.13500
H658        H  0.95329073  0.78982687  0.10129799     0.12500
C659        C  0.00040174  0.29473145  0.12490797     0.18800
C660        C  0.00005561  0.27297544  0.14382224    -0.10300
C661        C  0.99992321  0.22939226  0.14386580    -0.11100
C662        C  0.00013898  0.20737227  0.12499449     0.20400
C663        C  0.00051217  0.22912210  0.10607549    -0.13200
C664        C  0.00064444  0.27271496  0.10603193    -0.11400
C665        C  0.99999305  0.16252410  0.12505303     0.01400
C666        C  0.99991881  0.12495707  0.12512817    -0.31500
C667        C  0.00044971  0.33958302  0.12488878     0.02700
C668        C  0.00045421  0.37715279  0.12496427    -0.33100
H669        H  0.99986781  0.28968568  0.15850695     0.13800
H670        H  0.99964291  0.21289015  0.15858334     0.13600
H671        H  0.00068987  0.21240552  0.09139284     0.13500
H672        H  0.00091502  0.28922288  0.09131595     0.12500
loop_ 
_geom_bond_atom_site_label_1 
_geom_bond_atom_site_label_2 
_geom_bond_distance 
_geom_bond_site_symmetry_2 
_ccdc_geom_bond_type 
O1           Ni9   1.917       .  S
O1           C11   1.280   1_455  A
O2           Ni9   1.918   1_565  S
O2           C12   1.280       .  A
O3           Ni9   1.917       .  S
O3           C13   1.280   1_455  A
O4           Ni9   1.918       .  S
O4           C14   1.280   1_455  A
O5          Ni10   1.917       .  S
O5           C14   1.279       .  A
O6          Ni10   1.917       .  S
O6           C13   1.280       .  A
O7          Ni10   1.918   1_565  S
O7           C12   1.280   1_655  A
O8          Ni10   1.918       .  S
O8           C11   1.280       .  A
Ni9         Ni10   2.394   1_455  S
C11         C666   1.434       .  S
C12         C654   1.435       .  S
C13         C640   1.434       .  S
C14         C624   1.434       .  S
O15         Ni23   1.917       .  S
O15          C25   1.279   1_655  A
O16         Ni23   1.918       .  S
O16          C26   1.280   1_655  A
O17         Ni23   1.918       .  S
O17          C27   1.280   1_655  A
O18         Ni23   1.918       .  S
O18          C28   1.280   1_655  A
O19         Ni24   1.917       .  S
O19          C28   1.280       .  A
O20         Ni24   1.918       .  S
O20          C27   1.280       .  A
O21         Ni24   1.918       .  S
O21          C26   1.280       .  A
O22         Ni24   1.917       .  S
O22          C25   1.280       .  A
Ni23        Ni24   2.394   1_655  S
C25         C610   1.434       .  S
C26         C598   1.435       .  S
C27         C652   1.435       .  S
C28         C668   1.434       .  S
O29         Ni37   1.918       .  S
O29          C39   1.280       .  A
O30         Ni37   1.918   1_565  S
O30          C40   1.280       .  A
O31         Ni37   1.917       .  S
O31          C41   1.280       .  A
O32         Ni37   1.918       .  S
O32          C42   1.280       .  A
O33         Ni38   1.918       .  S
O33          C42   1.280       .  A
O34         Ni38   1.917       .  S
O34          C41   1.280       .  A
O35         Ni38   1.917   1_565  S
O35          C40   1.280       .  A
O36         Ni38   1.917       .  S
O36          C39   1.280       .  A
Ni37        Ni38   2.394       .  S
C39         C582   1.435       .  S
C40         C568   1.435       .  S
C41         C540   1.434       .  S
C42         C556   1.435       .  S
O43         Ni51   1.918       .  S
O43          C53   1.280       .  A
O44         Ni51   1.918       .  S
O44          C54   1.280       .  A
O45         Ni51   1.918       .  S
O45          C55   1.280       .  A
O46         Ni51   1.917       .  S
O46          C56   1.280       .  A
O47         Ni52   1.918       .  S
O47          C56   1.280       .  A
O48         Ni52   1.918       .  S
O48          C55   1.280       .  A
O49         Ni52   1.917       .  S
O49          C54   1.280       .  A
O50         Ni52   1.917       .  S
O50          C53   1.280       .  A
Ni51        Ni52   2.394       .  S
C53         C584   1.435       .  S
C54         C570   1.435       .  S
C55         C526   1.435       .  S
C56         C512   1.434       .  S
O57         Ni65   1.918   1_565  S
O57          C67   1.280   1_655  A
O58         Ni65   1.917       .  S
O58          C68   1.280   1_655  A
O59         Ni65   1.917       .  S
O59          C69   1.280   1_545  A
O60         Ni65   1.917       .  S
O60          C70   1.280   1_655  A
O61         Ni66   1.918       .  S
O61          C70   1.280   1_565  A
O62         Ni66   1.918       .  S
O62          C69   1.280   1_455  A
O63         Ni66   1.918   1_545  S
O63          C68   1.280       .  A
O64         Ni66   1.918       .  S
O64          C67   1.280       .  A
Ni65        Ni66   2.394   1_645  S
C67         C484   1.435       .  S
C68         C498   1.434   1_455  S
C69         C472   1.434       .  S
C70         C638   1.434       .  S
O71         Ni79   1.918       .  S
O71          C81   1.280       .  A
O72         Ni79   1.917       .  S
O72          C82   1.280   1_655  A
O73         Ni79   1.917       .  S
O73          C83   1.280   1_655  A
O74         Ni79   1.917       .  S
O74          C84   1.280       .  A
O75         Ni80   1.917       .  S
O75          C84   1.279   1_455  A
O76         Ni80   1.917       .  S
O76          C83   1.280       .  A
O77         Ni80   1.918       .  S
O77          C82   1.280       .  A
O78         Ni80   1.918       .  S
O78          C81   1.280   1_455  A
Ni79        Ni80   2.394   1_655  S
C81         C486   1.435       .  S
C82         C500   1.435       .  S
C83         C612   1.434       .  S
C84         C456   1.434       .  S
O85         Ni93   1.918       .  S
O85          C95   1.280       .  A
O86         Ni93   1.918   1_545  S
O86          C96   1.280       .  A
O87         Ni93   1.918       .  S
O87          C97   1.280   1_565  A
O88         Ni93   1.918       .  S
O88          C98   1.280   1_565  A
O89         Ni94   1.918       .  S
O89          C98   1.280       .  A
O90         Ni94   1.918       .  S
O90          C97   1.280       .  A
O91         Ni94   1.917       .  S
O91          C96   1.280       .  A
O92         Ni94   1.918   1_565  S
O92          C95   1.280       .  A
Ni93        Ni94   2.394   1_565  S
C95         C428   1.435       .  S
C96         C444   1.434       .  S
C97         C554   1.435       .  S
C98         C414   1.435       .  S
O99        Ni107   1.917       .  S
O99         C109   1.280       .  A
O100       Ni107   1.918       .  S
O100        C110   1.280       .  A
O101       Ni107   1.917       .  S
O101        C111   1.280       .  A
O102       Ni107   1.918       .  S
O102        C112   1.280       .  A
O103       Ni108   1.918       .  S
O103        C112   1.280       .  A
O104       Ni108   1.918       .  S
O104        C111   1.280       .  A
O105       Ni108   1.918       .  S
O105        C110   1.280       .  A
O106       Ni108   1.918       .  S
O106        C109   1.280       .  A
Ni107      Ni108   2.394       .  S
C109        C442   1.435       .  S
C110        C430   1.435       .  S
C111        C528   1.435       .  S
C112        C400   1.434       .  S
O113       Ni121   1.918       .  S
O113        C123   1.280   1_565  A
O114       Ni121   1.918   1_655  S
O114        C124   1.280   1_565  A
O115       Ni121   1.918       .  S
O115        C125   1.280   1_465  A
O116       Ni121   1.917       .  S
O116        C126   1.280   1_565  A
O117       Ni122   1.918       .  S
O117        C126   1.280   1_655  A
O118       Ni122   1.918       .  S
O118        C125   1.280       .  A
O119       Ni122   1.918       .  S
O119        C124   1.280       .  A
O120       Ni122   1.918   1_455  S
O120        C123   1.280       .  A
Ni121      Ni122   2.394   1_465  S
C123        C386   1.435       .  S
C124        C372   1.435       .  S
C125        C626   1.434       .  S
C126        C358   1.434       .  S
O127       Ni135   1.918       .  S
O127        C137   1.280       .  A
O128       Ni135   1.918       .  S
O128        C138   1.280       .  A
O129       Ni135   1.917   1_655  S
O129        C139   1.280       .  A
O130       Ni135   1.917       .  S
O130        C140   1.280       .  A
O131       Ni136   1.919       .  S
O131        C140   1.280       .  A
O132       Ni136   1.919   1_655  S
O132        C139   1.280       .  A
O133       Ni136   1.918       .  S
O133        C138   1.280       .  A
O134       Ni136   1.918       .  S
O134        C137   1.280       .  A
Ni135      Ni136   2.394       .  S
C137        C596   1.435       .  S
C138        C318   1.435       .  S
C139        C332   1.435       .  S
C140        C346   1.435       .  S
O141       Ni149   1.918       .  S
O141        C151   1.280   1_565  A
O142       Ni149   1.918       .  S
O142        C152   1.280   1_565  A
O143       Ni149   1.917       .  S
O143        C153   1.280   1_565  A
O144       Ni149   1.917       .  S
O144        C154   1.280   1_565  A
O145       Ni150   1.917       .  S
O145        C154   1.280       .  A
O146       Ni150   1.917       .  S
O146        C153   1.280       .  A
O147       Ni150   1.918       .  S
O147        C152   1.280       .  A
O148       Ni150   1.918       .  S
O148        C151   1.280       .  A
Ni149      Ni150   2.394   1_565  S
C151        C374   1.435       .  S
C152        C388   1.435       .  S
C153        C542   1.434       .  S
C154        C302   1.434       .  S
O155       Ni163   1.917       .  S
O155        C165   1.280       .  A
O156       Ni163   1.918       .  S
O156        C166   1.280       .  A
O157       Ni163   1.918       .  S
O157        C167   1.280       .  A
O158       Ni163   1.918       .  S
O158        C168   1.280       .  A
O159       Ni164   1.917       .  S
O159        C168   1.279       .  A
O160       Ni164   1.917       .  S
O160        C167   1.279       .  A
O161       Ni164   1.918       .  S
O161        C166   1.280       .  A
O162       Ni164   1.918       .  S
O162        C165   1.280       .  A
Ni163      Ni164   2.394       .  S
C165        C330   1.435       .  S
C166        C344   1.435       .  S
C167        C514   1.434       .  S
C168        C290   1.434       .  S
O169       Ni177   1.918       .  S
O169        C179   1.280       .  A
O170       Ni177   1.918   1_455  S
O170        C180   1.280       .  A
O171       Ni177   1.918       .  S
O171        C181   1.280   1_655  A
O172       Ni177   1.918       .  S
O172        C182   1.280       .  A
O173       Ni178   1.917       .  S
O173        C182   1.280   1_465  A
O174       Ni178   1.917       .  S
O174        C181   1.280   1_565  A
O175       Ni178   1.918       .  S
O175        C180   1.280   1_565  A
O176       Ni178   1.918   1_655  S
O176        C179   1.280   1_565  A
Ni177      Ni178   2.394   1_645  S
C179        C262   1.435       .  S
C180        C276   1.435       .  S
C181        C360   1.435       .  S
C182        C470   1.434       .  S
O183       Ni191   1.918       .  S
O183        C193   1.280       .  A
O184       Ni191   1.917   1_455  S
O184        C194   1.279       .  A
O185       Ni191   1.918       .  S
O185        C195   1.280       .  A
O186       Ni191   1.918   1_455  S
O186        C196   1.280       .  A
O187       Ni192   1.917   1_455  S
O187        C196   1.280       .  A
O188       Ni192   1.918       .  S
O188        C195   1.280       .  A
O189       Ni192   1.917       .  S
O189        C194   1.280   1_655  A
O190       Ni192   1.918       .  S
O190        C193   1.280       .  A
Ni191      Ni192   2.394       .  S
C193        C316   1.435       .  S
C194        C458   1.434       .  S
C195        C232   1.435       .  S
C196        C248   1.435       .  S
O197       Ni205   1.918       .  S
O197        C207   1.280       .  A
O198       Ni205   1.918       .  S
O198        C208   1.280       .  A
O199       Ni205   1.917       .  S
O199        C209   1.279   1_545  A
O200       Ni205   1.917       .  S
O200        C210   1.280       .  A
O201       Ni206   1.918       .  S
O201        C210   1.280   1_565  A
O202       Ni206   1.918       .  S
O202        C209   1.280       .  A
O203       Ni206   1.918       .  S
O203        C208   1.280   1_565  A
O204       Ni206   1.918       .  S
O204        C207   1.280   1_565  A
Ni205      Ni206   2.394   1_545  S
C207        C274   1.435       .  S
C208        C260   1.435       .  S
C209        C304   1.434       .  S
C210        C416   1.435       .  S
O211       Ni219   1.918       .  S
O211        C221   1.280       .  A
O212       Ni219   1.918       .  S
O212        C222   1.280       .  A
O213       Ni219   1.917       .  S
O213        C223   1.279       .  A
O214       Ni219   1.917       .  S
O214        C224   1.279       .  A
O215       Ni220   1.918       .  S
O215        C224   1.280       .  A
O216       Ni220   1.917       .  S
O216        C223   1.280       .  A
O217       Ni220   1.917       .  S
O217        C222   1.280       .  A
O218       Ni220   1.917       .  S
O218        C221   1.280       .  A
Ni219      Ni220   2.394       .  S
C221        C246   1.435       .  S
C222        C234   1.435       .  S
C223        C402   1.434       .  S
C224        C288   1.434       .  S
C225        C233   1.440       .  S
C225        C226   1.401       .  A
C225        C230   1.402       .  A
C226        C227   1.399       .  A
C226        H235   1.083       .  S
C227        C228   1.401       .  A
C227        H236   1.083       .  S
C228        C231   1.440       .  S
C228        C229   1.401       .  A
C229        C230   1.399       .  A
C229        H237   1.083       .  S
C230        H238   1.083       .  S
C231        C232   1.206       .  T
C233        C234   1.206       .  T
C239        C247   1.440       .  S
C239        C240   1.401       .  A
C239        C244   1.401       .  A
C240        C241   1.399       .  A
C240        H249   1.083       .  S
C241        C242   1.401       .  A
C241        H250   1.083       .  S
C242        C245   1.440       .  S
C242        C243   1.401       .  A
C243        C244   1.399       .  A
C243        H251   1.083       .  S
C244        H252   1.083       .  S
C245        C246   1.206       .  T
C247        C248   1.206       .  T
C253        C261   1.440       .  S
C253        C254   1.401   1_545  A
C253        C258   1.401       .  A
C254        C255   1.399       .  A
C254        H263   1.083       .  S
C255        C256   1.401   1_565  A
C255        H264   1.083       .  S
C256        C259   1.440       .  S
C256        C257   1.401       .  A
C257        C258   1.399       .  A
C257        H265   1.083       .  S
C258        H266   1.083       .  S
C259        C260   1.206       .  T
C261        C262   1.206       .  T
C267        C275   1.440       .  S
C267        C268   1.401       .  A
C267        C272   1.401   1_545  A
C268        C269   1.399       .  A
C268        H277   1.083       .  S
C269        C270   1.401       .  A
C269        H278   1.083       .  S
C270        C273   1.440       .  S
C270        C271   1.401   1_545  A
C271        C272   1.399       .  A
C271        H279   1.083       .  S
C272        H280   1.083       .  S
C273        C274   1.206       .  T
C275        C276   1.206       .  T
C281        C289   1.439       .  S
C281        C282   1.401       .  A
C281        C286   1.401       .  A
C282        C283   1.399       .  A
C282        H291   1.083       .  S
C283        C284   1.401       .  A
C283        H292   1.083       .  S
C284        C287   1.439       .  S
C284        C285   1.401       .  A
C285        C286   1.399       .  A
C285        H293   1.083       .  S
C286        H294   1.083       .  S
C287        C288   1.205       .  T
C289        C290   1.205       .  T
C295        C303   1.439       .  S
C295        C296   1.401       .  A
C295        C300   1.401   1_565  A
C296        C297   1.399       .  A
C296        H305   1.083       .  S
C297        C298   1.401   1_565  A
C297        H306   1.083       .  S
C298        C301   1.438       .  S
C298        C299   1.401       .  A
C299        C300   1.398       .  A
C299        H307   1.084       .  S
C300        H308   1.083       .  S
C301        C302   1.205       .  T
C303        C304   1.205       .  T
C309        C317   1.440       .  S
C309        C310   1.401       .  A
C309        C314   1.401   1_655  A
C310        C311   1.399       .  A
C310        H319   1.083       .  S
C311        C312   1.401       .  A
C311        H320   1.083       .  S
C312        C315   1.440       .  S
C312        C313   1.401   1_655  A
C313        C314   1.399       .  A
C313        H321   1.083       .  S
C314        H322   1.083       .  S
C315        C316   1.206       .  T
C317        C318   1.206   1_655  T
C323        C331   1.440       .  S
C323        C324   1.401       .  A
C323        C328   1.401       .  A
C324        C325   1.399       .  A
C324        H333   1.083       .  S
C325        C326   1.401       .  A
C325        H334   1.083       .  S
C326        C329   1.440       .  S
C326        C327   1.401       .  A
C327        C328   1.399       .  A
C327        H335   1.083       .  S
C328        H336   1.083       .  S
C329        C330   1.206       .  T
C331        C332   1.206       .  T
C337        C345   1.440       .  S
C337        C338   1.401       .  A
C337        C342   1.401       .  A
C338        C339   1.399       .  A
C338        H347   1.083       .  S
C339        C340   1.401       .  A
C339        H348   1.083       .  S
C340        C343   1.440       .  S
C340        C341   1.401       .  A
C341        C342   1.399       .  A
C341        H349   1.083       .  S
C342        H350   1.083       .  S
C343        C344   1.206       .  T
C345        C346   1.206       .  T
C351        C359   1.439       .  S
C351        C352   1.401   1_465  A
C351        C356   1.401       .  A
C352        C353   1.399       .  A
C352        H361   1.083       .  S
C353        C354   1.401   1_645  A
C353        H362   1.083       .  S
C354        C357   1.439       .  S
C354        C355   1.401       .  A
C355        C356   1.399       .  A
C355        H363   1.083       .  S
C356        H364   1.083       .  S
C357        C358   1.206   1_565  T
C359        C360   1.206   1_565  T
C365        C373   1.439       .  S
C365        C366   1.401   1_545  A
C365        C370   1.401       .  A
C366        C367   1.399       .  A
C366        H375   1.083       .  S
C367        C368   1.401   1_565  A
C367        H376   1.083       .  S
C368        C371   1.439       .  S
C368        C369   1.401       .  A
C369        C370   1.399       .  A
C369        H377   1.083       .  S
C370        H378   1.083       .  S
C371        C372   1.206       .  T
C373        C374   1.206       .  T
C379        C387   1.440       .  S
C379        C380   1.401   1_545  A
C379        C384   1.401       .  A
C380        C381   1.399       .  A
C380        H389   1.083       .  S
C381        C382   1.401   1_565  A
C381        H390   1.083       .  S
C382        C385   1.440       .  S
C382        C383   1.401       .  A
C383        C384   1.399       .  A
C383        H391   1.083       .  S
C384        H392   1.083       .  S
C385        C386   1.206       .  T
C387        C388   1.206       .  T
C393        C401   1.439       .  S
C393        C394   1.401       .  A
C393        C398   1.401       .  A
C394        C395   1.399       .  A
C394        H403   1.083       .  S
C395        C396   1.401       .  A
C395        H404   1.083       .  S
C396        C399   1.439       .  S
C396        C397   1.401       .  A
C397        C398   1.399       .  A
C397        H405   1.083       .  S
C398        H406   1.084       .  S
C399        C400   1.206       .  T
C401        C402   1.205       .  T
C407        C415   1.440       .  S
C407        C408   1.401       .  A
C407        C412   1.401   1_545  A
C408        C409   1.399       .  A
C408        H417   1.083       .  S
C409        C410   1.401       .  A
C409        H418   1.083       .  S
C410        C413   1.440       .  S
C410        C411   1.401   1_545  A
C411        C412   1.399       .  A
C411        H419   1.083       .  S
C412        H420   1.083       .  S
C413        C414   1.206       .  T
C415        C416   1.206       .  T
C421        C429   1.440       .  S
C421        C422   1.401       .  A
C421        C426   1.401       .  A
C422        C423   1.399       .  A
C422        H431   1.083       .  S
C423        C424   1.401       .  A
C423        H432   1.083       .  S
C424        C427   1.440       .  S
C424        C425   1.401       .  A
C425        C426   1.399       .  A
C425        H433   1.083       .  S
C426        H434   1.083       .  S
C427        C428   1.206       .  T
C429        C430   1.206       .  T
C435        C443   1.439       .  S
C435        C436   1.401       .  A
C435        C440   1.401       .  A
C436        C437   1.399       .  A
C436        H445   1.083       .  S
C437        C438   1.401       .  A
C437        H446   1.083       .  S
C438        C441   1.439       .  S
C438        C439   1.401       .  A
C439        C440   1.399       .  A
C439        H447   1.083       .  S
C440        H448   1.083       .  S
C441        C442   1.206       .  T
C443        C444   1.206       .  T
C449        C457   1.439       .  S
C449        C450   1.401       .  A
C449        C454   1.401   1_455  A
C450        C451   1.399       .  A
C450        H459   1.083       .  S
C451        C452   1.401   1_455  A
C451        H460   1.084       .  S
C452        C455   1.439       .  S
C452        C453   1.401       .  A
C453        C454   1.399       .  A
C453        H461   1.083       .  S
C454        H462   1.083       .  S
C455        C456   1.205       .  T
C457        C458   1.205       .  T
C463        C471   1.439       .  S
C463        C464   1.401   1_565  A
C463        C468   1.401   1_655  A
C464        C465   1.399       .  A
C464        H473   1.083       .  S
C465        C466   1.401       .  A
C465        H474   1.083       .  S
C466        C469   1.439       .  S
C466        C467   1.401   1_645  A
C467        C468   1.399       .  A
C467        H475   1.083       .  S
C468        H476   1.083       .  S
C469        C470   1.206       .  T
C471        C472   1.206       .  T
C477        C485   1.440       .  S
C477        C478   1.401   1_655  A
C477        C482   1.401       .  A
C478        C479   1.399       .  A
C478        H487   1.083       .  S
C479        C480   1.401       .  A
C479        H488   1.083       .  S
C480        C483   1.440       .  S
C480        C481   1.401   1_455  A
C481        C482   1.399       .  A
C481        H489   1.083       .  S
C482        H490   1.083       .  S
C483        C484   1.206       .  T
C485        C486   1.206       .  T
C491        C499   1.439   1_655  S
C491        C492   1.401   1_655  A
C491        C496   1.401       .  A
C492        C493   1.399       .  A
C492        H501   1.083       .  S
C493        C494   1.401   1_455  A
C493        H502   1.083       .  S
C494        C497   1.439       .  S
C494        C495   1.401       .  A
C495        C496   1.399       .  A
C495        H503   1.083       .  S
C496        H504   1.083       .  S
C497        C498   1.206       .  T
C499        C500   1.206       .  T
C505        C513   1.439       .  S
C505        C506   1.401       .  A
C505        C510   1.401       .  A
C506        C507   1.399       .  A
C506        H515   1.083       .  S
C507        C508   1.401       .  A
C507        H516   1.083       .  S
C508        C511   1.439       .  S
C508        C509   1.401       .  A
C509        C510   1.399       .  A
C509        H517   1.083       .  S
C510        H518   1.083       .  S
C511        C512   1.206       .  T
C513        C514   1.206       .  T
C519        C527   1.440       .  S
C519        C520   1.401       .  A
C519        C524   1.401       .  A
C520        C521   1.399   1_556  A
C520        H529   1.083       .  S
C521        C522   1.401       .  A
C521        H530   1.083       .  S
C522        C525   1.440       .  S
C522        C523   1.401       .  A
C523        C524   1.399   1_554  A
C523        H531   1.083       .  S
C524        H532   1.083       .  S
C525        C526   1.206       .  T
C527        C528   1.206       .  T
C533        C541   1.439       .  S
C533        C534   1.401       .  A
C533        C538   1.401   1_545  A
C534        C535   1.398       .  A
C534        H543   1.083       .  S
C535        C536   1.401       .  A
C535        H544   1.083       .  S
C536        C539   1.439       .  S
C536        C537   1.401   1_545  A
C537        C538   1.399       .  A
C537        H545   1.083       .  S
C538        H546   1.083       .  S
C539        C540   1.205       .  T
C541        C542   1.205       .  T
C547        C555   1.440       .  S
C547        C548   1.401   1_545  A
C547        C552   1.401       .  A
C548        C549   1.399   1_554  A
C548        H557   1.083       .  S
C549        C550   1.401   1_565  A
C549        H558   1.083       .  S
C550        C553   1.440       .  S
C550        C551   1.401       .  A
C551        C552   1.399   1_556  A
C551        H559   1.083       .  S
C552        H560   1.083       .  S
C553        C554   1.206       .  T
C555        C556   1.206       .  T
C561        C569   1.439       .  S
C561        C562   1.402       .  A
C561        C566   1.401       .  A
C562        C563   1.399       .  A
C562        H571   1.083       .  S
C563        C564   1.402       .  A
C563        H572   1.083       .  S
C564        C567   1.439       .  S
C564        C565   1.401       .  A
C565        C566   1.398       .  A
C565        H573   1.083       .  S
C566        H574   1.083       .  S
C567        C568   1.206       .  T
C569        C570   1.206       .  T
C575        C583   1.440       .  S
C575        C576   1.401       .  A
C575        C580   1.401       .  A
C576        C577   1.399       .  A
C576        H585   1.083       .  S
C577        C578   1.401       .  A
C577        H586   1.083       .  S
C578        C581   1.440       .  S
C578        C579   1.401       .  A
C579        C580   1.399       .  A
C579        H587   1.083       .  S
C580        H588   1.083       .  S
C581        C582   1.206       .  T
C583        C584   1.206       .  T
C589        C597   1.440       .  S
C589        C590   1.401       .  A
C589        C594   1.401   1_455  A
C590        C591   1.399       .  A
C590        H599   1.083       .  S
C591        C592   1.401       .  A
C591        H600   1.083       .  S
C592        C595   1.440       .  S
C592        C593   1.401   1_455  A
C593        C594   1.399       .  A
C593        H601   1.083       .  S
C594        H602   1.083       .  S
C595        C596   1.206       .  T
C597        C598   1.206       .  T
C603        C611   1.439       .  S
C603        C604   1.401       .  A
C603        C608   1.401   1_455  A
C604        C605   1.399   1_556  A
C604        H613   1.083       .  S
C605        C606   1.401       .  A
C605        H614   1.083       .  S
C606        C609   1.439       .  S
C606        C607   1.401   1_455  A
C607        C608   1.399   1_554  A
C607        H615   1.083       .  S
C608        H616   1.083       .  S
C609        C610   1.205       .  T
C611        C612   1.205       .  T
C617        C625   1.439       .  S
C617        C618   1.401   1_545  A
C617        C622   1.401   1_655  A
C618        C619   1.399       .  A
C618        H627   1.083       .  S
C619        C620   1.401   1_565  A
C619        H628   1.083       .  S
C620        C623   1.439       .  S
C620        C621   1.401   1_655  A
C621        C622   1.399       .  A
C621        H629   1.083       .  S
C622        H630   1.083       .  S
C623        C624   1.205       .  T
C625        C626   1.206       .  T
C631        C639   1.439       .  S
C631        C632   1.401       .  A
C631        C636   1.401   1_445  A
C632        C633   1.399   1_554  A
C632        H641   1.084       .  S
C633        C634   1.401       .  A
C633        H642   1.083       .  S
C634        C637   1.439       .  S
C634        C635   1.401   1_445  A
C635        C636   1.399   1_556  A
C635        H643   1.083       .  S
C636        H644   1.083       .  S
C637        C638   1.205       .  T
C639        C640   1.205   1_455  T
C645        C653   1.440       .  S
C645        C646   1.401       .  A
C645        C650   1.401   1_455  A
C646        C647   1.399       .  A
C646        H655   1.083       .  S
C647        C648   1.401       .  A
C647        H656   1.083       .  S
C648        C651   1.440       .  S
C648        C649   1.401   1_455  A
C649        C650   1.399       .  A
C649        H657   1.083       .  S
C650        H658   1.083       .  S
C651        C652   1.206       .  T
C653        C654   1.206       .  T
C659        C667   1.439       .  S
C659        C660   1.401       .  A
C659        C664   1.401       .  A
C660        C661   1.399   1_455  A
C660        H669   1.083   1_455  S
C661        C662   1.401   1_655  A
C661        H670   1.083       .  S
C662        C665   1.439   1_455  S
C662        C663   1.401       .  A
C663        C664   1.399       .  A
C663        H671   1.083       .  S
C664        H672   1.083       .  S
C665        C666   1.206       .  T
C667        C668   1.206       .  T
