geometry optimzed in LAMMPS
_audit_creation_date              2020-11-30 
_audit_creation_method            'lammps2cif' 
_symmetry_space_group_name_H-M    'P1' 
_symmetry_Int_Tables_number       1 
_symmetry_cell_setting            triclinic 
loop_ 
_symmetry_equiv_pos_as_xyz 
  x,y,z 
_cell_length_a                    25.847251959445188 
_cell_length_b                    26.072370883034292 
_cell_length_c                    26.276273475064567 
_cell_angle_alpha                 89.37268779169634 
_cell_angle_beta                  89.44851672770655 
_cell_angle_gamma                 89.60519165503132 
loop_ 
_atom_site_label 
_atom_site_type_symbol 
_atom_site_fract_x 
_atom_site_fract_y 
_atom_site_fract_z 
_atom_site_charge 
C1          C  0.86505950  0.86600467  0.86495756    -0.03940
N2          N  0.76918145  0.93291035  0.41895768    -0.07570
N3          N  0.73077319  0.94306768  0.45133597    -0.59690
N4          N  0.81712260  0.97246287  0.30792342    -0.07250
N5          N  0.81644404  0.00573387  0.27033495    -0.61820
N6          N  0.78256261  0.93652168  0.30195409    -0.06850
N7          N  0.75776668  0.94402056  0.25939788    -0.59670
N8          N  0.80585126  0.96721836  0.42348232    -0.06530
N9          N  0.79340068  0.00087148  0.45912967    -0.62170
C10         C  0.74674448  0.98507005  0.47694646     0.94610
C11         C  0.77980331  0.98692437  0.24028816     0.94380
N12         N  0.97068014  0.93985684  0.31002011    -0.07760
N13         N  0.00725795  0.95269298  0.27680578    -0.60270
N14         N  0.92572858  0.96188190  0.42594662    -0.05870
N15         N  0.93482255  0.99533083  0.46116487    -0.61520
N16         N  0.96217653  0.92664484  0.42424826    -0.07780
N17         N  0.99736512  0.93486299  0.45839968    -0.60530
N18         N  0.93498843  0.97580621  0.31203563    -0.05520
N19         N  0.94664208  0.01384987  0.28025873    -0.61610
Mn20       Mn  0.87059420  0.97077433  0.36786064     1.18440
C21         C  0.99191264  0.99907715  0.25821580     0.96690
C22         C  0.97910340  0.97736961  0.48057571     0.97350
N23         N  0.77378016  0.81609491  0.29544324    -0.07800
N24         N  0.73551044  0.80419986  0.26445807    -0.64110
N25         N  0.80984608  0.77598418  0.40865711    -0.06610
N26         N  0.79983751  0.73940580  0.44170487    -0.64790
N27         N  0.77357682  0.81167346  0.40960798    -0.07310
N28         N  0.73777064  0.80045186  0.44329775    -0.64380
N29         N  0.81005352  0.78045060  0.29403141    -0.06210
N30         N  0.79698040  0.74408587  0.26170326    -0.65070
Mn31       Mn  0.77292329  0.87476414  0.35645044     1.10660
C32         C  0.75032789  0.75924151  0.24300446     0.97910
C33         C  0.75506337  0.75563511  0.46239692     0.97990
N34         N  0.96774424  0.80845634  0.41735147    -0.07320
N35         N  0.00250075  0.79684442  0.45237396    -0.62690
N36         N  0.93200344  0.78782304  0.29724611    -0.06640
N37         N  0.94029882  0.76070563  0.25644330    -0.59420
N38         N  0.96844172  0.82210333  0.30216786    -0.07950
N39         N  0.00312969  0.81859947  0.26569274    -0.62260
N40         N  0.93264270  0.77236559  0.41468761    -0.06930
N41         N  0.94320703  0.73534065  0.44842469    -0.59440
Mn42       Mn  0.96870059  0.87400230  0.36357661     1.20190
Mn43       Mn  0.87157104  0.77730010  0.35356263     1.10090
Cl44       Cl  0.87072839  0.87393973  0.36064105    -0.87420
C45         C  0.98685057  0.75133017  0.47226676     0.94920
C46         C  0.98432170  0.78078520  0.23724928     0.94720
N47         N  0.96103376  0.43032772  0.91924487    -0.07570
N48         N  0.99475965  0.46580492  0.92876063    -0.59690
N49         N  0.93925978  0.31281235  0.96168449    -0.07250
N50         N  0.95109057  0.27762763  0.99631288    -0.61820
N51         N  0.97509939  0.31495474  0.92613643    -0.06850
N52         N  0.01237812  0.28122252  0.93596742    -0.59670
N53         N  0.92540101  0.42795480  0.95517720    -0.06530
N54         N  0.93368898  0.46174967  0.99033556    -0.62170
C55         C  0.97657034  0.48457442  0.97269951     0.94610
C56         C  0.99656815  0.25760175  0.97967046     0.94380
N57         N  0.78727146  0.29756835  0.92450894    -0.07760
N58         N  0.76313909  0.25403710  0.93135596    -0.60270
N59         N  0.80573380  0.41826661  0.96356693    -0.05870
N60         N  0.79292380  0.45180129  0.99908340    -0.61520
N61         N  0.76903242  0.41520597  0.92957539    -0.07780
N62         N  0.73065061  0.44728314  0.94104572    -0.60530
N63         N  0.82279671  0.30272521  0.95932883    -0.05520
N64         N  0.82372864  0.26353682  0.99072847    -0.61610
Mn65       Mn  0.87302731  0.36592534  0.96139327     1.18440
C66         C  0.78656954  0.23348240  0.97268020     0.96690
C67         C  0.74619860  0.47029044  0.98442499     0.97350
N68         N  0.96840710  0.31253211  0.81031147    -0.07800
N69         N  0.99824498  0.27192317  0.81167922    -0.64110
N70         N  0.93189155  0.42612212  0.76484995    -0.06610
N71         N  0.94409467  0.45691364  0.72597131    -0.64790
N72         N  0.96710616  0.42929980  0.80041457    -0.07310
N73         N  0.00340982  0.46258279  0.78672681    -0.64380
N74         N  0.93206737  0.30815011  0.77612342    -0.06210
N75         N  0.93627637  0.26381314  0.75344903    -0.65070
Mn76       Mn  0.96952392  0.37242313  0.86371061     1.10660
C77         C  0.97752826  0.24189534  0.77640176     0.97910
C78         C  0.98863311  0.47997059  0.74024625     0.97990
N79         N  0.77291334  0.41745375  0.81139559    -0.07320
N80         N  0.74009610  0.45591132  0.80894807    -0.62690
N81         N  0.81135375  0.30377098  0.76882302    -0.06640
N82         N  0.79995729  0.27250315  0.73106234    -0.59420
N83         N  0.77571872  0.30092140  0.80473961    -0.07950
N84         N  0.73914441  0.26823557  0.79163372    -0.62260
N85         N  0.80923064  0.42174303  0.77616125    -0.06930
N86         N  0.80226311  0.46380991  0.74929435    -0.59440
Mn87       Mn  0.77403183  0.35722408  0.86770715     1.20190
Mn88       Mn  0.87114744  0.36512859  0.76911467     1.10090
Cl89       Cl  0.87178833  0.36556241  0.86525004    -0.87420
C90         C  0.75957247  0.48469672  0.77077261     0.94920
C91         C  0.75509546  0.24978290  0.74591708     0.94720
N92         N  0.42013212  0.76558477  0.93254569    -0.07570
N93         N  0.45312678  0.72798610  0.94392305    -0.59690
N94         N  0.30713405  0.81871551  0.96353112    -0.07250
N95         N  0.26768614  0.82059778  0.99492369    -0.61820
N96         N  0.30118274  0.78341063  0.92893409    -0.06850
N97         N  0.25679829  0.76045868  0.93588962    -0.59670
N98         N  0.42407998  0.80264322  0.96571364    -0.06530
N99         N  0.45933870  0.79104859  0.00031807    -0.62170
C100        C  0.47773207  0.74458522  0.98612055     0.94610
C101        C  0.23661028  0.78436743  0.97701272     0.94380
N102        N  0.31830264  0.96968419  0.92926731    -0.07760
N103        N  0.28699001  0.00844985  0.94057803    -0.60270
N104        N  0.43265955  0.92092750  0.95708923    -0.05870
N105        N  0.46475472  0.93176566  0.99333496    -0.61520
N106        N  0.43417719  0.95587198  0.92072670    -0.07780
N107        N  0.46740133  0.99156195  0.93096869    -0.60530
N108        N  0.31685524  0.93468983  0.96546709    -0.05520
N109        N  0.28445326  0.94863912  0.00215600    -0.61610
Mn110      Mn  0.37061498  0.86876784  0.96431498     1.18440
C111        C  0.26582491  0.99459815  0.98601946     0.96690
C112        C  0.48564111  0.97540089  0.97585534     0.97350
N113        N  0.30227117  0.77043165  0.80855453    -0.07800
N114        N  0.26936281  0.73398700  0.79543392    -0.64110
N115        N  0.42357278  0.80409424  0.77910088    -0.06610
N116        N  0.46565152  0.79759386  0.75182647    -0.64790
N117        N  0.41990048  0.76803906  0.81434444    -0.07310
N118        N  0.45877485  0.73565692  0.81137416    -0.64380
N119        N  0.30453813  0.80597970  0.77270765    -0.06210
N120        N  0.27255888  0.79476394  0.73521352    -0.65070
Mn121      Mn  0.36021323  0.76949516  0.87138785     1.10660
C122        C  0.25006499  0.75002276  0.74993572     0.97910
C123        C  0.48714531  0.75531203  0.77289128     0.97990
N124        N  0.43157981  0.96000036  0.80291543    -0.07320
N125        N  0.46574683  0.99545773  0.78990827    -0.62690
N126        N  0.30959531  0.92589424  0.77908738    -0.06640
N127        N  0.26575981  0.93137973  0.75504050    -0.59420
N128        N  0.31417802  0.96192253  0.81318196    -0.07950
N129        N  0.27431109  0.99295842  0.81307051    -0.62260
N130        N  0.42894004  0.92489575  0.76763088    -0.06930
N131        N  0.46149850  0.93626571  0.72968052    -0.59440
Mn132      Mn  0.37496845  0.96317329  0.86607115     1.20190
Mn133      Mn  0.36673062  0.86522954  0.77224253     1.10090
Cl134      Cl  0.36830642  0.86649542  0.86828008    -0.87420
C135        C  0.48499981  0.98030447  0.74429020     0.94920
C136        C  0.24443769  0.97314597  0.77704406     0.94720
C137        C  0.37031688  0.36918018  0.86957970    -0.03940
C138        C  0.37063301  0.87121222  0.36845830    -0.03940
C139        C  0.87151889  0.36858279  0.37494682    -0.03940
N140        N  0.20997306  0.05544206  0.68502441    -0.07570
N141        N  0.23562123  0.04848594  0.72718861    -0.59690
N142        N  0.18557640  0.02200853  0.56423759    -0.07250
N143        N  0.19704772  0.98838919  0.52819605    -0.61820
N144        N  0.22218386  0.05663664  0.56735637    -0.06850
N145        N  0.25939956  0.04678978  0.53348295    -0.59670
N146        N  0.17503643  0.01971077  0.68037192    -0.06530
N147        N  0.17625561  0.98709907  0.71849534    -0.62170
C148        C  0.21372591  0.00604822  0.74746341     0.94610
C149        C  0.24286053  0.00460679  0.50842351     0.94380
N150        N  0.02912897  0.06191657  0.56341621    -0.07760
N151        N  0.99210310  0.05094339  0.53209368    -0.60270
N152        N  0.05710547  0.01776759  0.67804372    -0.05870
N153        N  0.04606319  0.98184732  0.71246306    -0.61520
N154        N  0.02112227  0.05358834  0.67808967    -0.07780
N155        N  0.98485450  0.04272372  0.71242541    -0.60530
N156        N  0.06511880  0.02613882  0.56321149    -0.05520
N157        N  0.05385850  0.98963930  0.53172183    -0.61610
Mn158      Mn  0.12108289  0.01993967  0.62097050     1.18440
C159        C  0.00865456  0.00622074  0.51324772     0.96690
C160        C  0.00137038  0.99837375  0.73445746     0.97350
N161        N  0.21922439  0.17820788  0.57526459    -0.07800
N162        N  0.25535135  0.18924446  0.54178287    -0.64110
N163        N  0.18129967  0.21091365  0.69072184    -0.06610
N164        N  0.19319918  0.24696989  0.72388605    -0.64790
N165        N  0.21768978  0.17533772  0.68977119    -0.07310
N166        N  0.25502009  0.18689410  0.72189584    -0.64380
N167        N  0.18311596  0.21401750  0.57589832    -0.06210
N168        N  0.19345490  0.25045796  0.54288590    -0.65070
Mn169      Mn  0.21921329  0.11592188  0.62926700     1.10660
C170        C  0.23830964  0.23412353  0.52254584     0.97910
C171        C  0.23892748  0.23113896  0.74388913     0.97990
N172        N  0.02374589  0.17048502  0.68137027    -0.07320
N173        N  0.99048462  0.17279555  0.71913748    -0.62690
N174        N  0.06103733  0.21748674  0.56827646    -0.06640
N175        N  0.05136994  0.25450644  0.53434522    -0.59420
N176        N  0.02571298  0.18157566  0.56524056    -0.07950
N177        N  0.99163590  0.19348665  0.52948985    -0.62260
N178        N  0.06040138  0.20444937  0.68608563    -0.06930
N179        N  0.05361387  0.23034780  0.72790334    -0.59440
Mn180      Mn  0.02343533  0.11726230  0.62153474     1.20190
Mn181      Mn  0.12099589  0.21357292  0.63027779     1.10090
Cl182      Cl  0.12140019  0.11688617  0.62499059    -0.87420
C183        C  0.01015755  0.20985331  0.74793831     0.94920
C184        C  0.00846346  0.23862419  0.50945073     0.94720
N185        N  0.01879158  0.67902667  0.05472917    -0.07570
N186        N  0.98182344  0.71257683  0.04300656    -0.59690
N187        N  0.06355265  0.56453651  0.02495279    -0.07250
N188        N  0.05169247  0.53485396  0.98728097    -0.61820
N189        N  0.02748420  0.56350740  0.06057314    -0.06850
N190        N  0.98993644  0.53297449  0.04828003    -0.59670
N191        N  0.05473905  0.67923693  0.01922843    -0.06530
N192        N  0.04331199  0.71261462  0.98279596    -0.62170
C193        C  0.99798510  0.73383330  0.99812736     0.94610
C194        C  0.00618174  0.51604252  0.00292247     0.94380
N195        N  0.22196241  0.57188911  0.05032379    -0.07760
N196        N  0.25970092  0.53968793  0.03698593    -0.60270
N197        N  0.17093414  0.68552895  0.02278420    -0.05870
N198        N  0.16945670  0.72571742  0.99273917    -0.61520
N199        N  0.20670309  0.68976944  0.05748460    -0.07780
N200        N  0.23063390  0.73357063  0.05175715    -0.60530
N201        N  0.18408624  0.56935515  0.01756737    -0.05520
N202        N  0.19526689  0.53583830  0.98156797    -0.61610
Mn203      Mn  0.11881220  0.62396905  0.02011789     1.18440
C204        C  0.24246831  0.51688347  0.99395003     0.96690
C205        C  0.20668416  0.75529995  0.01128473     0.97350
N206        N  0.02336588  0.56264100  0.18003125    -0.07800
N207        N  0.98658677  0.52972131  0.19318749    -0.64110
N208        N  0.06180222  0.68215113  0.20632524    -0.06610
N209        N  0.05772620  0.72548361  0.23096941    -0.64790
N210        N  0.02582222  0.67978074  0.17153560    -0.07310
N211        N  0.99646010  0.72073997  0.17160814    -0.64380
N212        N  0.05910933  0.56354074  0.21520861    -0.06210
N213        N  0.04689123  0.53131415  0.25296980    -0.65070
Mn214      Mn  0.02240888  0.62078578  0.11721163     1.10660
C215        C  0.00129379  0.51004963  0.23895631     0.97910
C216        C  0.01704756  0.74895131  0.20839766     0.97990
N217        N  0.21856207  0.68511569  0.17770513    -0.07320
N218        N  0.25529232  0.71758714  0.19119061    -0.62690
N219        N  0.18132568  0.56476029  0.20412280    -0.06640
N220        N  0.18694706  0.52223849  0.23055300    -0.59420
N221        N  0.21780833  0.56832569  0.16897874    -0.07950
N222        N  0.24938395  0.52884964  0.17111155    -0.62260
N223        N  0.18272776  0.68253115  0.21347185    -0.06930
N224        N  0.19420611  0.71350897  0.25144742    -0.59440
Mn225      Mn  0.21873099  0.62934260  0.11345813     1.20190
Mn226      Mn  0.12120423  0.62302426  0.21216507     1.10090
Cl227      Cl  0.12053157  0.62365466  0.11612162    -0.87420
C228        C  0.23938206  0.73592215  0.23710670     0.94920
C229        C  0.22904648  0.50027232  0.20904422     0.94720
N230        N  0.69073693  0.20631047  0.05428036    -0.07570
N231        N  0.73495354  0.22970561  0.04746654    -0.59690
N232        N  0.56868400  0.18385479  0.01692288    -0.07250
N233        N  0.53427527  0.19437095  0.98125817    -0.61820
N234        N  0.57135102  0.22157652  0.04945815    -0.06850
N235        N  0.53798652  0.25844503  0.03673303    -0.59670
N236        N  0.68575429  0.17021168  0.02035925    -0.06530
N237        N  0.72574098  0.16811926  0.98963409    -0.62170
C238        C  0.75613311  0.20509970  0.00720241     0.94610
C239        C  0.51507318  0.24100715  0.99390638     0.94380
N240        N  0.56124259  0.03028899  0.06411124    -0.07760
N241        N  0.53088048  0.99249493  0.05257742    -0.60270
N242        N  0.67820108  0.05454853  0.02006852    -0.05870
N243        N  0.71123618  0.04184854  0.98356536    -0.61520
N244        N  0.67730984  0.01931749  0.05602791    -0.07780
N245        N  0.70975813  0.98145638  0.04440260    -0.60530
N246        N  0.56241985  0.06506251  0.02747556    -0.05520
N247        N  0.53285986  0.05201538  0.98994175    -0.61610
Mn248      Mn  0.62321401  0.11887568  0.02010703     1.18440
C249        C  0.51407440  0.00721899  0.00669197     0.96690
C250        C  0.73138414  0.99643513  0.99928814     0.97350
N251        N  0.57052445  0.22068206  0.16766811    -0.07800
N252        N  0.53075128  0.25206650  0.16939104    -0.64110
N253        N  0.68619887  0.18571605  0.21059192    -0.06610
N254        N  0.71750117  0.19797506  0.24821391    -0.64790
N255        N  0.68836487  0.22067241  0.17420910    -0.07310
N256        N  0.72080429  0.25767330  0.18696401    -0.64380
N257        N  0.56722565  0.18521533  0.20355205    -0.06210
N258        N  0.52454557  0.19127112  0.23010544    -0.65070
Mn259      Mn  0.63082852  0.21969202  0.11114674     1.10660
C260        C  0.50223838  0.23256404  0.20784494     0.97910
C261        C  0.73926389  0.24295168  0.23326437     0.97990
N262        N  0.68055847  0.02923628  0.17245987    -0.07320
N263        N  0.72097674  0.99896992  0.17333057    -0.62690
N264        N  0.56514790  0.06425108  0.21780909    -0.06640
N265        N  0.53356511  0.05323158  0.25661510    -0.59420
N266        N  0.56289573  0.02812801  0.18343328    -0.07950
N267        N  0.52960742  0.99223763  0.19804529    -0.62260
N268        N  0.68412384  0.06579949  0.20613298    -0.06930
N269        N  0.72774039  0.06131524  0.23076746    -0.59440
Mn270      Mn  0.61999038  0.02534852  0.11952190     1.20190
Mn271      Mn  0.62555037  0.12531268  0.21180754     1.10090
Cl272      Cl  0.62455655  0.12242435  0.11587050    -0.87420
C273        C  0.75001829  0.01958942  0.20955768     0.94920
C274        C  0.51127442  0.00806733  0.24391495     0.94720
C275        C  0.62479333  0.61825318  0.11206003    -0.03940
C276        C  0.11974399  0.62154737  0.60945699    -0.03940
N277        N  0.31226640  0.27469812  0.42197301    -0.07570
N278        N  0.30617481  0.24202171  0.45960315    -0.59690
N279        N  0.26845267  0.30412350  0.30791703    -0.07250
N280        N  0.23008057  0.29068204  0.27790357    -0.61820
N281        N  0.30488156  0.26875541  0.30755282    -0.06850
N282        N  0.29199115  0.23065182  0.27737780    -0.59670
N283        N  0.27592241  0.31017330  0.42259550    -0.06530
N284        N  0.24386127  0.30277528  0.46070884    -0.62170
C285        C  0.26378286  0.26057488  0.48298159     0.94610
C286        C  0.24511573  0.24462951  0.25894915     0.94380
N287        N  0.30905753  0.45834824  0.30102547    -0.07760
N288        N  0.30311090  0.48715029  0.26037470    -0.60270
N289        N  0.26993184  0.43023417  0.42024853    -0.05870
N290        N  0.23375375  0.44144044  0.45458726    -0.61520
N291        N  0.30513907  0.46642242  0.41832463    -0.07780
N292        N  0.29325469  0.50301928  0.45128795    -0.60530
N293        N  0.27259554  0.42356830  0.30386092    -0.05520
N294        N  0.24040841  0.42842700  0.26582776    -0.61610
Mn295      Mn  0.27007393  0.36734942  0.36381817     1.18440
C296        C  0.26063064  0.46759488  0.23878265     0.96690
C297        C  0.24908149  0.48656699  0.47445973     0.97350
N298        N  0.42459694  0.27486511  0.30207968    -0.07800
N299        N  0.42950799  0.24339658  0.26377471    -0.64110
N300        N  0.46856698  0.30631413  0.41653373    -0.06610
N301        N  0.50529426  0.29505058  0.44987097    -0.64790
N302        N  0.43263367  0.27091348  0.41806439    -0.07310
N303        N  0.44404592  0.23520764  0.45245028    -0.64380
N304        N  0.45933956  0.31128772  0.29943797    -0.06210
N305        N  0.48822776  0.30601971  0.25862417    -0.65070
Mn306      Mn  0.36893044  0.27081807  0.36251536     1.10660
C307        C  0.46875308  0.26392940  0.23677327     0.97910
C308        C  0.48923620  0.25081208  0.47271462     0.97990
N309        N  0.42796185  0.46363816  0.41518388    -0.07320
N310        N  0.43710399  0.49812623  0.44984621    -0.62690
N311        N  0.46625400  0.43086894  0.29956008    -0.06640
N312        N  0.50452615  0.44369322  0.26813958    -0.59500
N313        N  0.43054446  0.46703436  0.30014265    -0.07950
N314        N  0.44422825  0.50542768  0.26940246    -0.62260
N315        N  0.46437792  0.42806477  0.41489980    -0.06930
N316        N  0.49931999  0.43739964  0.44943802    -0.59440
Mn317      Mn  0.36769552  0.46552623  0.35870163     1.20190
Mn318      Mn  0.46628633  0.36872449  0.35770172     1.10090
Cl319      Cl  0.36832369  0.36824495  0.36099091    -0.87420
C320        C  0.48138543  0.48089923  0.47057586     0.94920
C321        C  0.49016527  0.49004511  0.24909405     0.94720
N322        N  0.52756199  0.67831435  0.67892503    -0.07570
N323        N  0.49929729  0.68283675  0.72026407    -0.59690
N324        N  0.55714670  0.71778599  0.56011838    -0.07250
N325        N  0.54645075  0.75314538  0.52505235    -0.61820
N326        N  0.52096585  0.68256964  0.56137750    -0.06850
N327        N  0.48493609  0.69367574  0.52723141    -0.59670
N328        N  0.56251914  0.71446958  0.67664626    -0.06530
N329        N  0.55860192  0.74493728  0.71578775    -0.62170
C330        C  0.51958189  0.72415945  0.74282733     0.94610
C331        C  0.50144016  0.73765867  0.50411785     0.94380
N332        N  0.71460499  0.67862012  0.56080980    -0.07760
N333        N  0.74814840  0.68647285  0.52397038    -0.60270
N334        N  0.68113747  0.71832183  0.67575230    -0.05870
N335        N  0.69012528  0.75310898  0.71083744    -0.61520
N336        N  0.71741921  0.68284693  0.67632938    -0.07780
N337        N  0.75187084  0.69291130  0.71174054    -0.60530
N338        N  0.67817534  0.71399019  0.56039811    -0.05520
N339        N  0.68565969  0.74704060  0.52337890    -0.61610
Mn340      Mn  0.61953510  0.71782886  0.61786122     1.18440
C341        C  0.72898937  0.72888946  0.50142547     0.96690
C342        C  0.73416148  0.73661614  0.73365322     0.97350
N343        N  0.52440133  0.56080761  0.56475718    -0.07800
N344        N  0.48990546  0.55135640  0.52987162    -0.64110
N345        N  0.55800119  0.52386037  0.68113165    -0.06610
N346        N  0.54672803  0.48808060  0.71560085    -0.64790
N347        N  0.52158424  0.55926422  0.68022563    -0.07310
N348        N  0.48476877  0.54812158  0.71387435    -0.64380
N349        N  0.56060580  0.52506375  0.56533381    -0.06210
N350        N  0.55177949  0.49031462  0.53078752    -0.65070
Mn351      Mn  0.52178518  0.62058537  0.62109722     1.10660
C352        C  0.50786864  0.50761057  0.50932393     0.97910
C353        C  0.50115844  0.50392952  0.73637578     0.97990
N354        N  0.71501197  0.56429470  0.67860199    -0.07320
N355        N  0.74771746  0.55804733  0.71601488    -0.62690
N356        N  0.68306760  0.52298738  0.56330422    -0.06640
N357        N  0.69394665  0.48769356  0.52875841    -0.59420
N358        N  0.71887514  0.55856378  0.56251914    -0.07950
N359        N  0.75465371  0.54791989  0.52771596    -0.62260
N360        N  0.67851644  0.52960234  0.68071319    -0.06930
N361        N  0.68492855  0.49934596  0.72027956    -0.59440
Mn362      Mn  0.71824999  0.62093699  0.61933520     1.20190
Mn363      Mn  0.62035805  0.52361551  0.62252021     1.10090
Cl364      Cl  0.61988520  0.62057472  0.61941821    -0.87420
C365        C  0.72774456  0.51805639  0.74197944     0.94920
C366        C  0.73864726  0.50378787  0.50615222     0.94720
C367        C  0.61766684  0.12147547  0.61198485    -0.03940
C368        C  0.12296328  0.12114591  0.11279279    -0.03940
C369        C  0.15197675  0.15642611  0.15240962    -0.07570
C370        C  0.18596954  0.13177125  0.18720883    -0.18700
C371        C  0.21574693  0.15857635  0.22248645     0.09620
C372        C  0.21246126  0.21263341  0.22475826    -0.07500
C373        C  0.17495328  0.23716984  0.19494726    -0.18730
C374        C  0.14268369  0.21019801  0.16166307     0.09650
S375        S  0.25498950  0.12073747  0.26518932    -0.33700
S376        S  0.08766504  0.24635169  0.13795602    -0.33710
H377        H  0.08950305  0.28757527  0.17198134     0.27660
H378        H  0.24100094  0.14909302  0.30853187     0.27660
H379        H  0.19012703  0.09045092  0.18633958     0.18250
H380        H  0.17008033  0.27824244  0.19857594     0.18260
C381        C  0.58342972  0.15713903  0.57703825    -0.07570
C382        C  0.52853609  0.15654057  0.57973068    -0.18700
C383        C  0.49736914  0.18716758  0.54765917     0.09620
C384        C  0.52018398  0.22019743  0.51077704    -0.07500
C385        C  0.57438919  0.22201296  0.50818795    -0.18730
C386        C  0.60599680  0.19100510  0.53965833     0.09650
S387        S  0.42832511  0.18264011  0.55670457    -0.33700
S388        S  0.67530186  0.19601259  0.53087167    -0.33710
H389        H  0.67394040  0.21422932  0.48028740     0.27660
H390        H  0.41910892  0.23557086  0.55041787     0.27660
H391        H  0.50873972  0.13130890  0.60609370     0.18250
H392        H  0.59238719  0.24726210  0.48034693     0.18260
C393        C  0.14995200  0.58352493  0.57133655    -0.07570
C394        C  0.18037013  0.54294784  0.59229205    -0.18700
C395        C  0.21371015  0.51177754  0.56248156     0.09620
C396        C  0.21603791  0.51867463  0.50913252    -0.07500
C397        C  0.18084421  0.55305581  0.48719989    -0.18730
C398        C  0.14514995  0.58136568  0.51669647     0.09650
S399        S  0.25309799  0.46484762  0.59526128    -0.33700
S400        S  0.08798835  0.59867116  0.48144527    -0.33710
H401        H  0.05422257  0.57581917  0.51715603     0.27660
H402        H  0.29365022  0.46351142  0.55929076     0.27660
H403        H  0.18056123  0.53740753  0.63322185     0.18250
H404        H  0.17780117  0.55415408  0.44606158     0.18260
C405        C  0.52423123  0.52257354  0.21594836    -0.07570
C406        C  0.52794288  0.51185788  0.16415238    -0.18700
C407        C  0.55875214  0.54117652  0.13041602     0.09620
C408        C  0.58973682  0.58311158  0.14865160    -0.07500
C409        C  0.58662198  0.59153660  0.20205978    -0.18730
C410        C  0.55424618  0.56287026  0.23498149     0.09650
S411        S  0.55593577  0.51969260  0.06522876    -0.33700
S412        S  0.55329575  0.57989659  0.30140101    -0.33710
H413        H  0.54330511  0.53055183  0.32095724     0.27660
H414        H  0.55286575  0.56768850  0.04139262     0.27660
H415        H  0.50556607  0.48037212  0.14942686     0.18250
H416        H  0.61016937  0.61977718  0.21999438     0.18260
C417        C  0.83756917  0.33136563  0.33896439    -0.07570
C418        C  0.79704495  0.35416483  0.30961794    -0.18700
C419        C  0.76701003  0.32781627  0.27384768     0.09620
C420        C  0.77342777  0.27458364  0.26721555    -0.07500
C421        C  0.80900393  0.24966029  0.29906331    -0.18730
C422        C  0.83840187  0.27566633  0.33599582     0.09650
S423        S  0.71796736  0.36431849  0.24090560    -0.33700
S424        S  0.86403385  0.23104155  0.38257176    -0.33710
H425        H  0.84498930  0.25697341  0.42530167     0.27660
H426        H  0.67897937  0.32756087  0.24853073     0.27660
H427        H  0.78497523  0.39308385  0.31729456     0.18250
H428        H  0.81146914  0.20816759  0.29739680     0.18260
C429        C  0.90875300  0.40465839  0.33925988    -0.07570
C430        C  0.88823278  0.43014384  0.29548936    -0.18700
C431        C  0.91608379  0.46433881  0.26377538     0.09620
C432        C  0.96899076  0.47397757  0.27221705    -0.07500
C433        C  0.99043350  0.45109487  0.31590234    -0.18730
C434        C  0.96114727  0.42045843  0.35060366     0.09650
S435        S  0.87918791  0.49794124  0.21578051    -0.33700
S436        S  0.99226133  0.41353569  0.41156391    -0.33710
H437        H  0.94877536  0.42964553  0.43963380     0.27660
H438        H  0.89494946  0.54667990  0.23193584     0.27660
H439        H  0.84867261  0.42766826  0.28587953     0.18250
H440        H  0.02998648  0.46033071  0.32535392     0.18260
C441        C  0.97620979  0.27199910  0.47465084    -0.07570
C442        C  0.93823652  0.30280977  0.49695930    -0.18700
C443        C  0.90533155  0.33560067  0.46860136     0.09620
C444        C  0.90714637  0.33606955  0.41332966    -0.07500
C445        C  0.94788645  0.30585122  0.39168547    -0.18730
C446        C  0.98128608  0.27401776  0.42103441     0.09650
S447        S  0.86582237  0.37682043  0.50811949    -0.33700
S448        S  0.02897290  0.23645164  0.38718632    -0.33710
H449        H  0.03572317  0.19815432  0.42457363     0.27660
H450        H  0.89897092  0.37864810  0.55025089     0.27660
H451        H  0.93466728  0.30148916  0.53808316     0.18250
H452        H  0.95269088  0.30583175  0.35067836     0.18260
C453        C  0.83213563  0.40512819  0.40477041    -0.07570
C454        C  0.84510915  0.45735833  0.41296010    -0.18700
C455        C  0.81496710  0.49069314  0.44310828     0.09620
C456        C  0.76903833  0.47320684  0.46720792    -0.07500
C457        C  0.75341051  0.42298623  0.45673969    -0.18730
C458        C  0.78363197  0.38884597  0.42705636     0.09650
S459        S  0.83859241  0.55515639  0.44943290    -0.33700
S460        S  0.76135217  0.32325867  0.42581287    -0.33710
H461        H  0.70989551  0.33227127  0.44138950     0.27660
H462        H  0.79009822  0.57800494  0.43993630     0.27660
H463        H  0.88033712  0.47323418  0.39738822     0.18250
H464        H  0.71843728  0.40902172  0.47490551     0.18260
C465        C  0.27095511  0.77082716  0.27043931    -0.07570
C466        C  0.32503275  0.76639516  0.26970490    -0.18700
C467        C  0.35722050  0.79633603  0.30072818     0.09620
C468        C  0.33575100  0.83467582  0.33439533    -0.07500
C469        C  0.28064643  0.83600954  0.33671557    -0.18730
C470        C  0.24891944  0.80620775  0.30504692     0.09650
S471        S  0.42515929  0.78035838  0.29493580    -0.33700
S472        S  0.18004350  0.81649137  0.31002080    -0.33710
H473        H  0.17131828  0.81333655  0.25737664     0.27660
H474        H  0.44378670  0.83022633  0.28982744     0.27660
H475        H  0.34282322  0.73830854  0.24483172     0.18250
H476        H  0.26067834  0.85954535  0.36398780     0.18260
C477        C  0.47357259  0.97739797  0.27647645    -0.07570
C478        C  0.43527761  0.94919641  0.25215844    -0.18700
C479        C  0.39870968  0.91895094  0.27897165     0.09620
C480        C  0.40287941  0.91074608  0.33335045    -0.07500
C481        C  0.43874463  0.94353544  0.35744440    -0.18730
C482        C  0.47401598  0.97521440  0.33034165     0.09650
S483        S  0.34729647  0.89709732  0.23877089    -0.33700
S484        S  0.52077088  0.00927422  0.36715443    -0.33710
H485        H  0.56283519  0.99653549  0.33523714     0.27660
H486        H  0.30742142  0.91767125  0.26873134     0.27660
H487        H  0.43237899  0.95248870  0.21110945     0.18250
H488        H  0.44162627  0.94232879  0.39843624     0.18260
C489        C  0.33917090  0.90781757  0.40716605    -0.07570
C490        C  0.30038616  0.94136850  0.38760211    -0.18700
C491        C  0.26802632  0.97237280  0.41865063     0.09620
C492        C  0.27551557  0.97370493  0.47187411    -0.07500
C493        C  0.31704320  0.94555582  0.49145597    -0.18730
C494        C  0.34982927  0.91484550  0.46074101     0.09650
S495        S  0.21935532  0.01064256  0.38684659    -0.33700
S496        S  0.40840773  0.89427767  0.49238377    -0.33710
H497        H  0.38680398  0.88919434  0.54154308     0.27660
H498        H  0.18933009  0.02368217  0.42956871     0.27660
H499        H  0.29387858  0.94260006  0.34719385     0.18250
H500        H  0.32516037  0.94937526  0.53160752     0.18260
C501        C  0.47045260  0.76829555  0.46560078    -0.07570
C502        C  0.41671083  0.76158970  0.46364704    -0.18700
C503        C  0.38447037  0.79240475  0.43262499     0.09620
C504        C  0.40573299  0.83204571  0.40011724    -0.07500
C505        C  0.46078640  0.83395623  0.39844303    -0.18730
C506        C  0.49242064  0.80445737  0.43129282     0.09650
S507        S  0.31658671  0.77718972  0.43759016    -0.33700
S508        S  0.56114840  0.81395600  0.42645834    -0.33710
H509        H  0.56276510  0.84000101  0.47305618     0.27660
H510        H  0.29993398  0.82619939  0.45167994     0.27660
H511        H  0.39893716  0.73306022  0.48835487     0.18250
H512        H  0.48059662  0.85869418  0.37175322     0.18260
C513        C  0.33785787  0.33156141  0.83445967    -0.07570
C514        C  0.29589146  0.30416967  0.85684903    -0.18700
C515        C  0.26272930  0.27239809  0.82883558     0.09620
C516        C  0.27259734  0.26356621  0.77677742    -0.07500
C517        C  0.31696523  0.28544281  0.75508670    -0.18730
C518        C  0.35038651  0.31747293  0.78265138     0.09650
S519        S  0.20827856  0.24441881  0.86210490    -0.33700
S520        S  0.40977980  0.33476788  0.74958815    -0.33710
H521        H  0.40868982  0.29720298  0.71158289     0.27660
H522        H  0.20353096  0.20112433  0.83116113     0.27660
H523        H  0.28738723  0.30889603  0.89685201     0.18250
H524        H  0.32555433  0.27713729  0.71559115     0.18260
C525        C  0.27333067  0.47918415  0.96206583    -0.07570
C526        C  0.32698954  0.47513091  0.96882720    -0.18700
C527        C  0.35855413  0.44139956  0.93991848     0.09620
C528        C  0.33630671  0.40785629  0.90296175    -0.07500
C529        C  0.28209674  0.41344272  0.89620492    -0.18730
C530        C  0.25122554  0.44786367  0.92441547     0.09650
S531        S  0.42708227  0.44116099  0.95351021    -0.33700
S532        S  0.18324081  0.44910924  0.91023846    -0.33710
H533        H  0.18562307  0.49901923  0.88940395     0.27660
H534        H  0.42683396  0.47797913  0.99221150     0.27660
H535        H  0.34458787  0.49929636  0.99692924     0.18250
H536        H  0.26256168  0.39275313  0.86691515     0.18260
C537        C  0.40327287  0.33092943  0.90439735    -0.07570
C538        C  0.44317749  0.30174847  0.88096821    -0.18700
C539        C  0.48020453  0.27370943  0.90876230     0.09620
C540        C  0.47671392  0.27067435  0.96238258    -0.07500
C541        C  0.43358760  0.29351225  0.98592855    -0.18730
C542        C  0.39533845  0.32047219  0.95777944     0.09650
S543        S  0.53306917  0.24568288  0.87318379    -0.33700
S544        S  0.33480475  0.33364464  0.99058257    -0.33710
H545        H  0.34559419  0.30760924  0.03645772     0.27660
H546        H  0.57122319  0.25850134  0.90860671     0.27660
H547        H  0.44847156  0.30396859  0.84032282     0.18250
H548        H  0.42873265  0.28810751  0.02659181     0.18260
C549        C  0.40493732  0.40702453  0.83607464    -0.07570
C550        C  0.45947666  0.41018451  0.84230738    -0.18700
C551        C  0.49119844  0.44185647  0.81184249     0.09620
C552        C  0.46934657  0.47310062  0.77347150    -0.07500
C553        C  0.41539960  0.47335848  0.76867680    -0.18730
C554        C  0.38316446  0.44129569  0.79866026     0.09650
S555        S  0.55941812  0.44208169  0.82565459    -0.33700
S556        S  0.31482509  0.44229604  0.78433005    -0.33710
H557        H  0.31555267  0.48014752  0.74580162     0.27660
H558        H  0.56596629  0.49481964  0.81590589     0.27660
H559        H  0.47870148  0.38930977  0.87231115     0.18250
H560        H  0.39848420  0.49754801  0.73945329     0.18260
C561        C  0.21631955  0.71817737  0.71589957    -0.07570
C562        C  0.23392851  0.66981918  0.70070930    -0.18700
C563        C  0.21058027  0.64265457  0.66063855     0.09620
C564        C  0.15938464  0.65629087  0.64267652    -0.07500
C565        C  0.14426424  0.70715480  0.65690582    -0.18730
C566        C  0.17148078  0.73745358  0.69205711     0.09650
S567        S  0.26043412  0.61201180  0.62310679    -0.33700
S568        S  0.14518619  0.79990639  0.70660254    -0.33710
H569        H  0.16289153  0.80119847  0.75700259     0.27660
H570        H  0.24270252  0.63121637  0.57629602     0.27660
H571        H  0.27137116  0.65709329  0.71448257     0.18250
H572        H  0.10884196  0.72377488  0.64251429     0.18260
C573        C  0.16072364  0.08894649  0.07730015    -0.07570
C574        C  0.21543770  0.09144698  0.08247132    -0.18700
C575        C  0.24971443  0.06001013  0.05494884     0.09620
C576        C  0.23095510  0.02780926  0.01683683    -0.07500
C577        C  0.17793069  0.02803097  0.00724573    -0.18730
C578        C  0.14276954  0.05695235  0.03669779     0.09650
S579        S  0.31761695  0.06391060  0.06948938    -0.33700
S580        S  0.07608360  0.05005363  0.01842450    -0.33710
H581        H  0.05709666  0.03800567  0.06704201     0.27660
H582        H  0.32772759  0.01109628  0.06565841     0.27660
H583        H  0.23319739  0.11828853  0.10754248     0.18250
H584        H  0.16344607  0.00416311  0.97707544     0.18260
C585        C  0.58678542  0.65445181  0.07914309    -0.07570
C586        C  0.53202624  0.65290615  0.08698638    -0.18700
C587        C  0.49662528  0.67982075  0.05628491     0.09620
C588        C  0.51435916  0.71302873  0.01751451    -0.07500
C589        C  0.56788692  0.72004004  0.01242283    -0.18730
C590        C  0.60394123  0.69270262  0.04304288     0.09650
S591        S  0.42865989  0.67138791  0.07017571    -0.33700
S592        S  0.67142447  0.70871840  0.03506622    -0.33710
H593        H  0.66525067  0.75072465  0.00159498     0.27660
H594        H  0.41206180  0.67408022  0.01949066     0.27660
H595        H  0.51485324  0.63013290  0.11702867     0.18250
H596        H  0.58145275  0.74767689  0.98439433     0.18260
C597        C  0.52069527  0.01341133  0.71192398    -0.07570
C598        C  0.52346620  0.06571505  0.72266316    -0.18700
C599        C  0.55197170  0.10111982  0.69258812     0.09620
C600        C  0.58296660  0.08492237  0.64953655    -0.07500
C601        C  0.57834776  0.03103800  0.63933682    -0.18730
C602        C  0.54967090  0.99610643  0.66979172     0.09650
S603        S  0.54187745  0.16615421  0.71147043    -0.33700
S604        S  0.55332095  0.92927391  0.65327620    -0.33710
H605        H  0.55728842  0.91179377  0.70396588     0.27660
H606        H  0.48973541  0.16112750  0.72669441     0.27660
H607        H  0.50138862  0.07986369  0.75488736     0.18250
H608        H  0.59619508  0.01396340  0.60640780     0.18260
C609        C  0.72239773  0.21707310  0.71201038    -0.07570
C610        C  0.67111596  0.23169554  0.70354115    -0.18700
C611        C  0.64017513  0.20811435  0.66628913     0.09620
C612        C  0.65543445  0.15933207  0.64410253    -0.07500
C613        C  0.70983606  0.14997746  0.64884463    -0.18730
C614        C  0.74237336  0.17697714  0.68208885     0.09650
S615        S  0.58942907  0.24983640  0.64102597    -0.33700
S616        S  0.80972581  0.15844610  0.68385182    -0.33710
H617        H  0.81624788  0.16829265  0.73590413     0.27660
H618        H  0.59273186  0.29051432  0.67551158     0.27660
H619        H  0.65715843  0.26579784  0.72252121     0.18250
H620        H  0.73024016  0.12419528  0.62449958     0.18260
C621        C  0.02737537  0.21841086  0.00850392    -0.07570
C622        C  0.08144905  0.21942299  0.00529557    -0.18700
C623        C  0.11279960  0.18848588  0.03678747     0.09620
C624        C  0.08993889  0.15433209  0.07401453    -0.07500
C625        C  0.03512049  0.15035940  0.07245921    -0.18730
C626        C  0.00428659  0.18158678  0.04104341     0.09650
S627        S  0.18140856  0.19562106  0.02537363    -0.33700
S628        S  0.93547363  0.17042726  0.04276538    -0.33710
H629        H  0.92854809  0.17836768  0.99020067     0.27660
H630        H  0.19529224  0.20442396  0.07572729     0.27660
H631        H  0.09982358  0.24622771  0.97911898     0.18250
H632        H  0.01493937  0.12144044  0.09424466     0.18260
C633        C  0.71462206  0.50762622  0.01505045    -0.07570
C634        C  0.71294685  0.50176410  0.06807857    -0.18700
C635        C  0.68492307  0.53546781  0.09980706     0.09620
C636        C  0.65728250  0.57892147  0.07858455    -0.07500
C637        C  0.65734929  0.58203668  0.02441825    -0.18730
C638        C  0.68592627  0.54828652  0.99324765     0.09650
S639        S  0.68828131  0.51891733  0.16682249    -0.33700
S640        S  0.68518422  0.56039523  0.92557453    -0.33710
H641        H  0.73772668  0.54825448  0.91756151     0.27660
H642        H  0.69024295  0.56863890  0.18577596     0.27660
H643        H  0.73392979  0.47001449  0.08533885     0.18250
H644        H  0.63474514  0.61054782  0.00473528     0.18260
C645        C  0.02077883  0.51522026  0.70707625    -0.07570
C646        C  0.03229104  0.56445822  0.72403599    -0.18700
C647        C  0.06031553  0.60048588  0.69385091     0.09620
C648        C  0.08405314  0.58583178  0.64614421    -0.07500
C649        C  0.06863555  0.53636215  0.62891355    -0.18730
C650        C  0.03900840  0.50158035  0.65838623     0.09650
S651        S  0.05755193  0.66536834  0.71642633    -0.33700
S652        S  0.02701829  0.43935119  0.63175668    -0.33710
H653        H  0.03007447  0.41210998  0.67814120     0.27660
H654        H  0.01495136  0.66019528  0.74979977     0.27660
H655        H  0.01690835  0.57565556  0.76078512     0.18250
H656        H  0.07909986  0.52351602  0.59128025     0.18260
C657        C  0.66148497  0.65644926  0.14292030    -0.07570
C658        C  0.63689452  0.69637520  0.17094228    -0.18700
C659        C  0.66383980  0.73110358  0.20192037     0.09620
C660        C  0.71826445  0.72730312  0.20715171    -0.07500
C661        C  0.74364626  0.69022542  0.17780701    -0.18730
C662        C  0.71759781  0.65717582  0.14456947     0.09650
S663        S  0.62559010  0.77789348  0.23548254    -0.33700
S664        S  0.76250905  0.62030465  0.10638318    -0.33710
H665        H  0.74259671  0.63549088  0.05924934     0.27660
H666        H  0.65178298  0.81954057  0.21280459     0.27660
H667        H  0.59514612  0.69992095  0.16976522     0.18250
H668        H  0.78549272  0.68790908  0.17962657     0.18260
C669        C  0.02308158  0.03011515  0.22053361    -0.07570
C670        C  0.06224716  0.00514163  0.19292006    -0.18700
C671        C  0.09650641  0.03137307  0.15973240     0.09620
C672        C  0.08903062  0.08538743  0.14937361    -0.07500
C673        C  0.05127631  0.11012668  0.18034662    -0.18730
C674        C  0.01825890  0.08377141  0.21417855     0.09650
S675        S  0.15148699  0.99389454  0.13766207    -0.33700
S676        S  0.97258588  0.12186221  0.24977765    -0.33710
H677        H  0.92961476  0.09769018  0.22823467     0.27660
H678        H  0.14195019  0.94780666  0.16429890     0.27660
H679        H  0.06713831  0.96428608  0.19884152     0.18250
H680        H  0.04657805  0.15127791  0.17745262     0.18260
C681        C  0.08404322  0.65953433  0.57709412    -0.07570
C682        C  0.02899614  0.65662751  0.57898045    -0.18700
C683        C  0.99662584  0.68617251  0.54672962     0.09620
C684        C  0.01811953  0.72108714  0.51094683    -0.07500
C685        C  0.07214287  0.72719610  0.51116164    -0.18730
C686        C  0.10502205  0.69741206  0.54275180     0.09650
S687        S  0.92779570  0.67791205  0.55396509    -0.33700
S688        S  0.17409219  0.70578551  0.53457247    -0.33710
H689        H  0.17240709  0.75042449  0.50408491     0.27660
H690        H  0.91560065  0.73011063  0.54650750     0.27660
H691        H  0.00988314  0.62996405  0.60446077     0.18250
H692        H  0.08918172  0.75404472  0.48427411     0.18260
C693        C  0.71318305  0.01592764  0.51230167    -0.07570
C694        C  0.67041080  0.04178752  0.49225469    -0.18700
C695        C  0.63713906  0.07200629  0.52256601     0.09620
C696        C  0.64957385  0.08323256  0.57489075    -0.07500
C697        C  0.68849556  0.05031087  0.59550474    -0.18730
C698        C  0.72122994  0.01913743  0.56522771     0.09650
S699        S  0.57506748  0.08256758  0.49330457    -0.33700
S700        S  0.77224629  0.98414229  0.59690931    -0.33710
H701        H  0.77653343  0.94421006  0.56161473     0.27660
H702        H  0.54744028  0.06323956  0.53561152     0.27660
H703        H  0.66110769  0.03606819  0.45256500     0.18250
H704        H  0.69386457  0.04910551  0.63634152     0.18260
C705        C  0.82924288  0.90040550  0.90089006    -0.07570
C706        C  0.83356739  0.95476440  0.90121072    -0.18700
C707        C  0.80477756  0.98611116  0.93438611     0.09620
C708        C  0.76742711  0.96450916  0.96758554    -0.07500
C709        C  0.76105387  0.91131912  0.96708786    -0.18730
C710        C  0.79035059  0.87928945  0.93484838     0.09650
S711        S  0.81893995  0.05379282  0.93317181    -0.33700
S712        S  0.77159807  0.81255454  0.93853831    -0.33710
H713        H  0.82079667  0.79029955  0.93771052     0.27660
H714        H  0.81302847  0.06021891  0.98602274     0.27660
H715        H  0.85871603  0.97465697  0.87499042     0.18250
H716        H  0.73154806  0.89433237  0.99141063     0.18260
C717        C  0.90095684  0.89927433  0.82736792    -0.07570
C718        C  0.93920947  0.93062776  0.84994818    -0.18700
C719        C  0.97188786  0.96357465  0.82155256     0.09620
C720        C  0.96818479  0.96572799  0.76811826    -0.07500
C721        C  0.93337964  0.93333851  0.74465535    -0.18730
C722        C  0.90212409  0.89858199  0.77217525     0.09650
S723        S  0.01758671  0.00152759  0.85612216    -0.33700
S724        S  0.87035728  0.85227370  0.73237082    -0.33710
H725        H  0.90430609  0.85496909  0.69023499     0.27660
H726        H  0.02435027  0.04024945  0.81912188     0.27660
H727        H  0.94274881  0.93055426  0.89099443     0.18250
H728        H  0.93199267  0.93416570  0.70344038     0.18260
C729        C  0.82633009  0.83123870  0.83466240    -0.07570
C730        C  0.83227640  0.77701593  0.83389932    -0.18700
C731        C  0.80198978  0.74519940  0.80355941     0.09620
C732        C  0.76254056  0.76648887  0.77298349    -0.07500
C733        C  0.75144525  0.81889447  0.77822136    -0.18730
C734        C  0.78199139  0.85129447  0.80793336     0.09650
S735        S  0.81499227  0.67725018  0.80732651    -0.33700
S736        S  0.76196851  0.91785894  0.80631606    -0.33710
H737        H  0.81103328  0.93861287  0.79788647     0.27660
H738        H  0.76249241  0.66330224  0.80695675     0.27660
H739        H  0.86019269  0.75774844  0.85749852     0.18250
H740        H  0.72002485  0.83575505  0.75659540     0.18260
C741        C  0.90434667  0.83385513  0.89973276    -0.07570
C742        C  0.90471068  0.83978927  0.95368514    -0.18700
C743        C  0.93419643  0.80842162  0.98632541     0.09620
C744        C  0.96772405  0.77098498  0.96603281    -0.07500
C745        C  0.97316827  0.76888549  0.91292671    -0.18730
C746        C  0.94310407  0.79963446  0.87983384     0.09650
S747        S  0.92826920  0.81958436  0.05373947    -0.33700
S748        S  0.95561452  0.79290708  0.81241517    -0.33710
H749        H  0.98311306  0.74620803  0.81467395     0.27660
H750        H  0.98122010  0.81235346  0.06370340     0.27660
H751        H  0.88166012  0.86882148  0.97216556     0.18250
H752        H  0.00086071  0.74202900  0.89702116     0.18260
loop_ 
_geom_bond_atom_site_label_1 
_geom_bond_atom_site_label_2 
_geom_bond_distance 
_geom_bond_site_symmetry_2 
_ccdc_geom_bond_type 
C1          C705   1.595       .  S
C1          C717   1.601       .  S
C1          C729   1.581       .  S
C1          C741   1.599       .  S
N2            N3   1.328       .  A
N2            N8   1.315       .  A
N2          Mn31   2.248       .  S
N3           C10   1.360       .  A
N4            N6   1.311       .  A
N4            N5   1.308   1_565  A
N4          Mn20   2.105       .  S
N5           C11   1.338   1_545  A
N6            N7   1.306       .  A
N6          Mn31   2.157       .  S
N7           C11   1.349       .  A
N8            N9   1.326   1_565  A
N8          Mn20   2.213       .  S
N9           C10   1.355   1_545  A
C10         C693   1.501   1_565  S
C11         C273   1.399   1_565  S
N12          N18   1.312       .  A
N12          N13   1.323   1_655  A
N12         Mn42   2.209       .  S
N13          C21   1.357   1_455  A
N14          N15   1.303       .  A
N14          N16   1.312       .  A
N14         Mn20   2.108       .  S
N15          C22   1.337       .  A
N16          N17   1.304       .  A
N16         Mn42   2.120       .  S
N17          C22   1.339       .  A
N18          N19   1.324   1_565  A
N18         Mn20   2.212       .  S
N19          C21   1.356   1_545  A
Mn20        Cl44   2.534       .  S
C21         C669   1.503   1_665  S
C22         C159   1.386   1_665  S
N23          N24   1.328       .  A
N23          N29   1.316       .  A
N23         Mn31   2.228       .  S
N24          C32   1.357       .  A
N25          N27   1.317       .  A
N25          N26   1.308       .  A
N25         Mn43   2.144       .  S
N26          C33   1.342       .  A
N27          N28   1.307       .  A
N27         Mn31   2.146       .  S
N28          C33   1.342       .  A
N29          N30   1.328       .  A
N29         Mn43   2.242       .  S
N30          C32   1.361       .  A
Mn31        Cl44   2.531       .  S
C32         C660   1.520       .  S
C33         C341   1.403       .  S
N34          N35   1.324   1_655  A
N34          N40   1.315       .  A
N34         Mn42   2.206       .  S
N35          C45   1.354   1_455  A
N36          N37   1.306       .  A
N36          N38   1.311       .  A
N36         Mn43   2.158       .  S
N37          C46   1.347       .  A
N38          N39   1.310   1_655  A
N38         Mn42   2.117       .  S
N39          C46   1.340   1_455  A
N40          N41   1.332       .  A
N40         Mn43   2.265       .  S
N41          C45   1.366       .  A
Mn42        Cl44   2.534       .  S
Mn43        Cl44   2.528       .  S
C45         C684   1.516   1_655  S
C46         C216   1.404   1_655  S
N47          N48   1.303       .  A
N47          N53   1.314       .  A
N47         Mn76   2.120       .  S
N48          C55   1.339       .  A
N49          N51   1.310       .  A
N49          N50   1.321       .  A
N49         Mn65   2.194       .  S
N50          C56   1.354       .  A
N51          N52   1.325   1_655  A
N51         Mn76   2.215       .  S
N52          C56   1.358   1_455  A
N53          N54   1.304       .  A
N53         Mn65   2.120       .  S
N54          C55   1.338       .  A
C55         C194   1.387   1_656  S
C56         C621   1.495   1_656  S
N57          N63   1.311       .  A
N57          N58   1.309       .  A
N57         Mn87   2.172       .  S
N58          C66   1.352       .  A
N59          N60   1.324       .  A
N59          N61   1.313       .  A
N59         Mn65   2.204       .  S
N60          C67   1.355       .  A
N61          N62   1.328       .  A
N61         Mn87   2.234       .  S
N62          C67   1.359       .  A
N63          N64   1.306       .  A
N63         Mn65   2.106       .  S
N64          C66   1.337       .  A
Mn65        Cl89   2.527       .  S
C66         C238   1.403   1_556  S
C67         C633   1.502   1_556  S
N68          N69   1.306       .  A
N68          N74   1.312       .  A
N68         Mn76   2.111       .  S
N69          C77   1.338       .  A
N70          N72   1.314       .  A
N70          N71   1.329       .  A
N70         Mn88   2.244       .  S
N71          C78   1.360       .  A
N72          N73   1.327   1_655  A
N72         Mn76   2.217       .  S
N73          C78   1.356   1_455  A
N74          N75   1.310       .  A
N74         Mn88   2.165       .  S
N75          C77   1.350       .  A
Mn76        Cl89   2.534       .  S
C77         C183   1.400   1_655  S
C78         C645   1.508   1_655  S
N79          N80   1.310       .  A
N79          N85   1.317       .  A
N79         Mn87   2.146       .  S
N80          C90   1.342       .  A
N81          N82   1.328       .  A
N81          N83   1.314       .  A
N81         Mn88   2.232       .  S
N82          C91   1.358       .  A
N83          N84   1.328       .  A
N83         Mn87   2.224       .  S
N84          C91   1.358       .  A
N85          N86   1.310       .  A
N85         Mn88   2.178       .  S
N86          C90   1.349       .  A
Mn87        Cl89   2.538       .  S
Mn88        Cl89   2.526       .  S
C90         C365   1.412       .  S
C91         C609   1.509       .  S
N92          N93   1.328       .  A
N92          N98   1.313       .  A
N92        Mn121   2.244       .  S
N93         C100   1.360       .  A
N94          N96   1.312       .  A
N94          N95   1.306       .  A
N94        Mn110   2.104       .  S
N95         C101   1.337       .  A
N96          N97   1.308       .  A
N96        Mn121   2.169       .  S
N97         C101   1.352       .  A
N98          N99   1.325   1_556  A
N98        Mn110   2.202       .  S
N99         C100   1.353   1_554  A
C100        C588   1.498   1_556  S
C101        C205   1.401   1_556  S
N102        N108   1.311       .  A
N102        N103   1.325   1_565  A
N102       Mn132   2.211       .  S
N103        C111   1.355   1_545  A
N104        N105   1.304       .  A
N104        N106   1.313       .  A
N104       Mn110   2.116       .  S
N105        C112   1.338       .  A
N106        N107   1.303       .  A
N106       Mn132   2.115       .  S
N107        C112   1.337       .  A
N108        N109   1.323   1_556  A
N108       Mn110   2.203       .  S
N109        C111   1.354   1_554  A
Mn110      Cl134   2.526       .  S
C111        C576   1.486   1_566  S
C112        C249   1.385   1_566  S
N113        N114   1.330       .  A
N113        N119   1.315       .  A
N113       Mn121   2.240       .  S
N114        C122   1.360       .  A
N115        N117   1.316       .  A
N115        N116   1.308       .  A
N115       Mn133   2.168       .  S
N116        C123   1.347       .  A
N117        N118   1.310       .  A
N117       Mn121   2.141       .  S
N118        C123   1.343       .  A
N119        N120   1.328       .  A
N119       Mn133   2.237       .  S
N120        C122   1.358       .  A
Mn121      Cl134   2.539       .  S
C122        C561   1.514       .  S
C123        C330   1.407       .  S
N124        N125   1.323       .  A
N124        N130   1.312       .  A
N124       Mn132   2.204       .  S
N125        C135   1.355       .  A
N126        N127   1.309       .  A
N126        N128   1.312       .  A
N126       Mn133   2.164       .  S
N127        C136   1.350       .  A
N128        N129   1.306       .  A
N128       Mn132   2.108       .  S
N129        C136   1.338       .  A
N130        N131   1.331       .  A
N130       Mn133   2.247       .  S
N131        C135   1.363       .  A
Mn132      Cl134   2.528       .  S
Mn133      Cl134   2.525       .  S
C135        C597   1.516   1_565  S
C136        C148   1.399   1_565  S
C137        C513   1.601       .  S
C137        C528   1.597       .  S
C137        C537   1.594       .  S
C137        C549   1.590       .  S
C138        C468   1.602       .  S
C138        C480   1.608       .  S
C138        C489   1.613       .  S
C138        C504   1.594       .  S
C139        C417   1.629       .  S
C139        C429   1.633       .  S
C139        C444   1.604       .  S
C139        C453   1.596       .  S
N140        N141   1.307       .  A
N140        N146   1.309       .  A
N140       Mn169   2.154       .  S
N141        C148   1.348       .  A
N142        N144   1.316       .  A
N142        N143   1.328   1_545  A
N142       Mn158   2.226       .  S
N143        C149   1.357   1_565  A
N144        N145   1.330       .  A
N144       Mn169   2.257       .  S
N145        C149   1.361       .  A
N146        N147   1.307   1_545  A
N146       Mn158   2.103       .  S
N147        C148   1.338   1_565  A
C149        C492   1.509   1_545  S
N150        N156   1.313       .  A
N150        N151   1.304   1_455  A
N150       Mn180   2.116       .  S
N151        C159   1.338   1_655  A
N152        N153   1.325   1_545  A
N152        N154   1.314       .  A
N152       Mn158   2.222       .  S
N153        C160   1.356       .  A
N154        N155   1.325   1_455  A
N154       Mn180   2.217       .  S
N155        C160   1.356   1_645  A
N156        N157   1.304   1_545  A
N156       Mn158   2.111       .  S
N157        C159   1.337   1_565  A
Mn158      Cl182   2.531       .  S
C160        C720   1.490   1_455  S
N161        N162   1.308       .  A
N161        N167   1.316       .  A
N161       Mn169   2.145       .  S
N162        C170   1.343       .  A
N163        N165   1.317       .  A
N163        N164   1.328       .  A
N163       Mn181   2.236       .  S
N164        C171   1.358       .  A
N165        N166   1.326       .  A
N165       Mn169   2.232       .  S
N166        C171   1.357       .  A
N167        N168   1.307       .  A
N167       Mn181   2.139       .  S
N168        C170   1.341       .  A
Mn169      Cl182   2.532       .  S
C170        C285   1.403       .  S
C171        C516   1.503       .  S
N172        N173   1.308   1_455  A
N172        N178   1.309       .  A
N172       Mn180   2.108       .  S
N173        C183   1.340   1_655  A
N174        N175   1.331       .  A
N174        N176   1.316       .  A
N174       Mn181   2.260       .  S
N175        C184   1.362       .  A
N176        N177   1.327   1_455  A
N176       Mn180   2.225       .  S
N177        C184   1.357   1_655  A
N178        N179   1.306       .  A
N178       Mn181   2.148       .  S
N179        C183   1.347       .  A
Mn180      Cl182   2.535       .  S
Mn181      Cl182   2.526       .  S
C184        C441   1.509   1_455  S
N185        N186   1.327   1_455  A
N185        N191   1.310       .  A
N185       Mn214   2.226       .  S
N186        C193   1.361   1_554  A
N187        N189   1.315       .  A
N187        N188   1.303   1_554  A
N187       Mn203   2.117       .  S
N188        C194   1.337   1_556  A
N189        N190   1.305   1_455  A
N189       Mn214   2.122       .  S
N190        C194   1.338   1_655  A
N191        N192   1.321   1_554  A
N191       Mn203   2.188       .  S
N192        C193   1.352   1_455  A
C193        C744   1.499       .  S
N195        N201   1.312       .  A
N195        N196   1.330       .  A
N195       Mn225   2.248       .  S
N196        C204   1.363   1_554  A
N197        N198   1.306   1_554  A
N197        N199   1.311       .  A
N197       Mn203   2.105       .  S
N198        C205   1.336   1_556  A
N199        N200   1.309       .  A
N199       Mn225   2.166       .  S
N200        C205   1.353       .  A
N201        N202   1.323   1_554  A
N201       Mn203   2.201       .  S
N202        C204   1.354       .  A
Mn203      Cl227   2.523       .  S
C204        C525   1.516       .  S
N206        N207   1.326   1_455  A
N206        N212   1.314       .  A
N206       Mn214   2.229       .  S
N207        C215   1.359   1_655  A
N208        N210   1.313       .  A
N208        N209   1.311       .  A
N208       Mn226   2.174       .  S
N209        C216   1.352       .  A
N210        N211   1.306   1_455  A
N210       Mn214   2.113       .  S
N211        C216   1.338   1_655  A
N212        N213   1.330       .  A
N212       Mn226   2.240       .  S
N213        C215   1.362       .  A
Mn214      Cl227   2.538       .  S
C215        C432   1.525   1_455  S
N217        N218   1.330       .  A
N217        N223   1.315       .  A
N217       Mn225   2.240       .  S
N218        C228   1.361       .  A
N219        N220   1.310       .  A
N219        N221   1.317       .  A
N219       Mn226   2.176       .  S
N220        C229   1.348       .  A
N221        N222   1.310       .  A
N221       Mn225   2.147       .  S
N222        C229   1.343       .  A
N223        N224   1.328       .  A
N223       Mn226   2.230       .  S
N224        C228   1.358       .  A
Mn225      Cl227   2.544       .  S
Mn226      Cl227   2.524       .  S
C228        C465   1.517       .  S
C229        C296   1.411       .  S
N230        N231   1.309       .  A
N230        N236   1.311       .  A
N230       Mn259   2.171       .  S
N231        C238   1.353       .  A
N232        N234   1.313       .  A
N232        N233   1.323   1_554  A
N232       Mn248   2.198       .  S
N233        C239   1.354       .  A
N234        N235   1.329       .  A
N234       Mn259   2.245       .  S
N235        C239   1.361   1_554  A
N236        N237   1.307   1_554  A
N236       Mn248   2.106       .  S
N237        C238   1.337   1_556  A
C239        C540   1.503       .  S
N240        N246   1.315       .  A
N240        N241   1.304   1_545  A
N240       Mn270   2.116       .  S
N241        C249   1.337   1_565  A
N242        N243   1.321   1_554  A
N242        N244   1.311       .  A
N242       Mn248   2.191       .  S
N243        C250   1.352   1_545  A
N244        N245   1.327   1_545  A
N244       Mn270   2.227       .  S
N245        C250   1.360   1_554  A
N246        N247   1.303   1_554  A
N246       Mn248   2.120       .  S
N247        C249   1.336   1_556  A
Mn248      Cl272   2.520       .  S
C250        C708   1.498       .  S
N251        N252   1.310       .  A
N251        N257   1.316       .  A
N251       Mn259   2.143       .  S
N252        C260   1.342       .  A
N253        N255   1.315       .  A
N253        N254   1.327       .  A
N253       Mn271   2.229       .  S
N254        C261   1.357       .  A
N255        N256   1.330       .  A
N255       Mn259   2.238       .  S
N256        C261   1.361       .  A
N257        N258   1.309       .  A
N257       Mn271   2.174       .  S
N258        C260   1.348       .  A
Mn259      Cl272   2.544       .  S
C260        C307   1.410       .  S
C261        C420   1.516       .  S
N262        N263   1.305   1_545  A
N262        N268   1.312       .  A
N262       Mn270   2.108       .  S
N263        C273   1.338   1_565  A
N264        N265   1.330       .  A
N264        N266   1.314       .  A
N264       Mn271   2.241       .  S
N265        C274   1.361       .  A
N266        N267   1.327   1_545  A
N266       Mn270   2.226       .  S
N267        C274   1.358   1_565  A
N268        N269   1.309       .  A
N268       Mn271   2.166       .  S
N269        C273   1.351       .  A
Mn270      Cl272   2.535       .  S
Mn271      Cl272   2.523       .  S
C274        C477   1.517   1_545  S
C275        C408   1.600       .  S
C275        C585   1.609       .  S
C275        C636   1.589       .  S
C275        C657   1.611       .  S
C276        C393   1.610       .  S
C276        C564   1.637       .  S
C276        C648   1.619       .  S
C276        C681   1.594       .  S
N277        N278   1.307       .  A
N277        N283   1.314       .  A
N277       Mn306   2.134       .  S
N278        C285   1.341       .  A
N279        N281   1.313       .  A
N279        N280   1.325       .  A
N279       Mn295   2.221       .  S
N280        C286   1.358       .  A
N281        N282   1.324       .  A
N281       Mn306   2.209       .  S
N282        C286   1.355       .  A
N283        N284   1.307       .  A
N283       Mn295   2.140       .  S
N284        C285   1.342       .  A
C286        C372   1.502       .  S
N287        N293   1.313       .  A
N287        N288   1.309       .  A
N287       Mn317   2.164       .  S
N288        C296   1.347       .  A
N289        N290   1.327       .  A
N289        N291   1.316       .  A
N289       Mn295   2.223       .  S
N290        C297   1.356       .  A
N291        N292   1.328       .  A
N291       Mn317   2.241       .  S
N292        C297   1.359       .  A
N293        N294   1.311       .  A
N293       Mn295   2.141       .  S
N294        C296   1.344       .  A
Mn295      Cl319   2.540       .  S
C297        C396   1.501       .  S
N298        N299   1.310       .  A
N298        N304   1.312       .  A
N298       Mn306   2.135       .  S
N299        C307   1.343       .  A
N300        N302   1.314       .  A
N300        N301   1.327       .  A
N300       Mn318   2.233       .  S
N301        C308   1.360       .  A
N302        N303   1.324       .  A
N302       Mn306   2.211       .  S
N303        C308   1.355       .  A
N304        N305   1.309       .  A
N304       Mn318   2.163       .  S
N305        C307   1.347       .  A
Mn306      Cl319   2.540       .  S
C308        C384   1.505       .  S
N309        N310   1.311       .  A
N309        N315   1.317       .  A
N309       Mn317   2.162       .  S
N310        C320   1.345       .  A
N311        N312   1.325       .  A
N311        N313   1.315       .  A
N311       Mn318   2.215       .  S
N312        C321   1.354       .  A
N313        N314   1.327       .  A
N313       Mn317   2.227       .  S
N314        C321   1.357       .  A
N315        N316   1.312       .  A
N315       Mn318   2.169       .  S
N316        C320   1.346       .  A
Mn317      Cl319   2.536       .  S
Mn318      Cl319   2.533       .  S
C320        C352   1.423       .  S
C321        C405   1.494       .  S
N322        N323   1.309       .  A
N322        N328   1.311       .  A
N322       Mn351   2.157       .  S
N323        C330   1.347       .  A
N324        N326   1.315       .  A
N324        N325   1.326       .  A
N324       Mn340   2.225       .  S
N325        C331   1.357       .  A
N326        N327   1.328       .  A
N326       Mn351   2.240       .  S
N327        C331   1.361       .  A
N328        N329   1.309       .  A
N328       Mn340   2.126       .  S
N329        C330   1.342       .  A
C331        C501   1.514       .  S
N332        N338   1.313       .  A
N332        N333   1.309       .  A
N332       Mn362   2.141       .  S
N333        C341   1.343       .  A
N334        N335   1.324       .  A
N334        N336   1.313       .  A
N334       Mn340   2.213       .  S
N335        C342   1.357       .  A
N336        N337   1.324       .  A
N336       Mn362   2.214       .  S
N337        C342   1.357       .  A
N338        N339   1.306       .  A
N338       Mn340   2.132       .  S
N339        C341   1.341       .  A
Mn340      Cl364   2.535       .  S
C342        C732   1.501       .  S
N343        N344   1.311       .  A
N343        N349   1.316       .  A
N343       Mn351   2.162       .  S
N344        C352   1.345       .  A
N345        N347   1.314       .  A
N345        N346   1.325       .  A
N345       Mn363   2.219       .  S
N346        C353   1.357       .  A
N347        N348   1.324       .  A
N347       Mn351   2.217       .  S
N348        C353   1.356       .  A
N349        N350   1.312       .  A
N349       Mn363   2.165       .  S
N350        C352   1.345       .  A
Mn351      Cl364   2.536       .  S
C353        C552   1.500       .  S
N354        N355   1.311       .  A
N354        N360   1.312       .  A
N354       Mn362   2.136       .  S
N355        C365   1.343       .  A
N356        N357   1.327       .  A
N356        N358   1.315       .  A
N356       Mn363   2.236       .  S
N357        C366   1.361       .  A
N358        N359   1.324       .  A
N358       Mn362   2.219       .  S
N359        C366   1.357       .  A
N360        N361   1.309       .  A
N360       Mn363   2.162       .  S
N361        C365   1.347       .  A
Mn362      Cl364   2.543       .  S
Mn363      Cl364   2.528       .  S
C366        C456   1.514       .  S
C367        C381   1.574       .  S
C367        C600   1.631       .  S
C367        C612   1.639       .  S
C367        C696   1.618       .  S
C368        C369   1.593       .  S
C368        C573   1.586       .  S
C368        C624   1.582       .  S
C368        C672   1.593       .  S
C369        C370   1.420       .  A
C369        C374   1.444       .  A
C370        C371   1.405       .  A
C370        H379   1.082       .  S
C371        C372   1.413       .  A
C371        S375   1.801       .  S
C372        C373   1.399       .  A
C373        C374   1.411       .  A
C373        H380   1.083       .  S
C374        S376   1.812       .  S
S375        H378   1.408       .  S
S376        H377   1.407       .  S
C381        C382   1.420       .  A
C381        C386   1.436       .  A
C382        C383   1.409       .  A
C382        H391   1.078       .  S
C383        C384   1.416       .  A
C383        S387   1.803       .  S
C384        C385   1.403       .  A
C385        C386   1.412       .  A
C385        H392   1.083       .  S
C386        S388   1.809       .  S
S387        H390   1.407       .  S
S388        H389   1.407       .  S
C393        C394   1.423       .  A
C393        C398   1.444       .  A
C394        C395   1.417       .  A
C394        H403   1.084       .  S
C395        C396   1.412       .  A
C395        S399   1.803       .  S
C396        C397   1.397       .  A
C397        C398   1.409       .  A
C397        H404   1.085       .  S
C398        S400   1.803       .  S
S399        H402   1.405       .  S
S400        H401   1.406       .  S
C405        C406   1.395       .  A
C405        C410   1.409       .  A
C406        C407   1.409       .  A
C406        H415   1.084       .  S
C407        C408   1.448       .  A
C407        S411   1.810       .  S
C408        C409   1.424       .  A
C409        C410   1.410       .  A
C409        H416   1.074       .  S
C410        S412   1.805       .  S
S411        H414   1.395       .  S
S412        H413   1.405       .  S
C417        C418   1.429       .  A
C417        C422   1.455       .  A
C418        C419   1.412       .  A
C418        H427   1.080       .  S
C419        C420   1.409       .  A
C419        S423   1.802       .  S
C420        C421   1.401       .  A
C421        C422   1.419       .  A
C421        H428   1.085       .  S
C422        S424   1.807       .  S
S423        H426   1.407       .  S
S424        H425   1.401       .  S
C429        C430   1.427       .  A
C429        C434   1.453       .  A
C430        C431   1.410       .  A
C430        H439   1.058       .  S
C431        C432   1.412       .  A
C431        S435   1.804       .  S
C432        C433   1.405       .  A
C433        C434   1.422       .  A
C433        H440   1.084   1_655  S
C434        S436   1.806       .  S
S435        H438   1.408       .  S
S436        H437   1.403       .  S
C441        C442   1.393       .  A
C441        C446   1.414       .  A
C442        C443   1.413       .  A
C442        H451   1.084       .  S
C443        C444   1.453       .  A
C443        S447   1.807       .  S
C444        C445   1.428       .  A
C445        C446   1.420       .  A
C445        H452   1.083       .  S
C446        S448   1.803   1_655  S
S447        H450   1.408       .  S
S448        H449   1.404       .  S
C453        C454   1.424       .  A
C453        C458   1.443       .  A
C454        C455   1.408       .  A
C454        H463   1.078       .  S
C455        C456   1.416       .  A
C455        S459   1.802       .  S
C456        C457   1.404       .  A
C457        C458   1.416       .  A
C457        H464   1.082       .  S
C458        S460   1.809       .  S
S459        H462   1.407       .  S
S460        H461   1.407       .  S
C465        C466   1.402       .  A
C465        C470   1.415       .  A
C466        C467   1.415       .  A
C466        H475   1.084       .  S
C467        C468   1.446       .  A
C467        S471   1.807       .  S
C468        C469   1.425       .  A
C469        C470   1.416       .  A
C469        H476   1.075       .  S
C470        S472   1.802       .  S
S471        H474   1.394       .  S
S472        H473   1.407       .  S
C477        C478   1.400       .  A
C477        C482   1.416       .  A
C478        C479   1.413       .  A
C478        H487   1.084       .  S
C479        C480   1.447       .  A
C479        S483   1.805       .  S
C480        C481   1.423       .  A
C481        C482   1.416       .  A
C481        H488   1.080       .  S
C482        S484   1.800   1_565  S
S483        H486   1.398       .  S
S484        H485   1.407   1_545  S
C489        C490   1.422       .  A
C489        C494   1.451       .  A
C490        C491   1.418       .  A
C490        H499   1.077       .  S
C491        C492   1.415       .  A
C491        S495   1.806   1_565  S
C492        C493   1.395       .  A
C493        C494   1.415       .  A
C493        H500   1.083       .  S
C494        S496   1.810       .  S
S495        H498   1.402       .  S
S496        H497   1.408       .  S
C501        C502   1.403       .  A
C501        C506   1.415       .  A
C502        C503   1.412       .  A
C502        H511   1.084       .  S
C503        C504   1.442       .  A
C503        S507   1.805       .  S
C504        C505   1.424       .  A
C505        C506   1.413       .  A
C505        H512   1.076       .  S
C506        S508   1.798       .  S
S507        H510   1.398       .  S
S508        H509   1.408       .  S
C513        C514   1.422       .  A
C513        C518   1.447       .  A
C514        C515   1.414       .  A
C514        H523   1.080       .  S
C515        C516   1.410       .  A
C515        S519   1.804       .  S
C516        C517   1.398       .  A
C517        C518   1.415       .  A
C517        H524   1.083       .  S
C518        S520   1.814       .  S
S519        H522   1.405       .  S
S520        H521   1.407       .  S
C525        C526   1.403       .  A
C525        C530   1.417       .  A
C526        C527   1.417       .  A
C526        H535   1.082       .  S
C527        C528   1.440       .  A
C527        S531   1.810       .  S
C528        C529   1.420       .  A
C529        C530   1.409       .  A
C529        H536   1.076       .  S
C530        S532   1.800       .  S
S531        H534   1.406       .  S
S532        H533   1.408       .  S
C537        C538   1.417       .  A
C537        C542   1.439       .  A
C538        C539   1.406       .  A
C538        H547   1.076       .  S
C539        C540   1.412       .  A
C539        S543   1.803       .  S
C540        C541   1.402       .  A
C541        C542   1.418       .  A
C541        H548   1.082   1_556  S
C542        S544   1.812       .  S
S543        H546   1.407       .  S
S544        H545   1.406   1_556  S
C549        C550   1.424       .  A
C549        C554   1.437       .  A
C550        C551   1.406       .  A
C550        H559   1.077       .  S
C551        C552   1.409       .  A
C551        S555   1.804       .  S
C552        C553   1.401       .  A
C553        C554   1.413       .  A
C553        H560   1.082       .  S
C554        S556   1.810       .  S
S555        H558   1.407       .  S
S556        H557   1.406       .  S
C561        C562   1.398       .  A
C561        C566   1.410       .  A
C562        C563   1.417       .  A
C562        H571   1.085       .  S
C563        C564   1.450       .  A
C563        S567   1.803       .  S
C564        C565   1.433       .  A
C565        C566   1.417       .  A
C565        H572   1.080       .  S
C566        S568   1.804       .  S
S567        H570   1.403       .  S
S568        H569   1.406       .  S
C573        C574   1.424       .  A
C573        C578   1.444       .  A
C574        C575   1.404       .  A
C574        H583   1.075       .  S
C575        C576   1.406       .  A
C575        S579   1.804       .  S
C576        C577   1.396       .  A
C577        C578   1.408       .  A
C577        H584   1.084   1_554  S
C578        S580   1.804       .  S
S579        H582   1.404       .  S
S580        H581   1.397       .  S
C585        C586   1.429       .  A
C585        C590   1.438       .  A
C586        C587   1.405       .  A
C586        H595   1.077       .  S
C587        C588   1.405       .  A
C587        S591   1.805       .  S
C588        C589   1.402       .  A
C589        C590   1.420       .  A
C589        H596   1.082   1_554  S
C590        S592   1.806       .  S
S591        H594   1.404       .  S
S592        H593   1.406       .  S
C597        C598   1.398       .  A
C597        C602   1.407   1_545  A
C598        C599   1.415       .  A
C598        H607   1.083       .  S
C599        C600   1.445       .  A
C599        S603   1.789       .  S
C600        C601   1.439       .  A
C601        C602   1.415   1_545  A
C601        H608   1.076       .  S
C602        S604   1.802       .  S
S603        H606   1.409       .  S
S604        H605   1.407       .  S
C609        C610   1.396       .  A
C609        C614   1.407       .  A
C610        C611   1.418       .  A
C610        H619   1.082       .  S
C611        C612   1.455       .  A
C611        S615   1.824       .  S
C612        C613   1.432       .  A
C613        C614   1.415       .  A
C613        H620   1.066       .  S
C614        S616   1.804       .  S
S615        H618   1.406       .  S
S616        H617   1.406       .  S
C621        C622   1.400       .  A
C621        C626   1.410       .  A
C622        C623   1.408       .  A
C622        H631   1.084   1_554  S
C623        C624   1.441       .  A
C623        S627   1.806       .  S
C624        C625   1.422       .  A
C625        C626   1.403       .  A
C625        H632   1.076       .  S
C626        S628   1.804   1_455  S
S627        H630   1.396       .  S
S628        H629   1.407   1_554  S
C633        C634   1.400       .  A
C633        C638   1.409   1_554  A
C634        C635   1.410       .  A
C634        H643   1.084       .  S
C635        C636   1.445       .  A
C635        S639   1.811       .  S
C636        C637   1.425       .  A
C637        C638   1.409   1_554  A
C637        H644   1.074       .  S
C638        S640   1.803       .  S
S639        H642   1.395       .  S
S640        H641   1.407       .  S
C645        C646   1.398       .  A
C645        C650   1.408       .  A
C646        C647   1.421       .  A
C646        H655   1.083       .  S
C647        C648   1.444       .  A
C647        S651   1.799       .  S
C648        C649   1.432       .  A
C649        C650   1.411       .  A
C649        H656   1.079       .  S
C650        S652   1.804       .  S
S651        H654   1.407       .  S
S652        H653   1.407       .  S
C657        C658   1.424       .  A
C657        C662   1.452       .  A
C658        C659   1.415       .  A
C658        H667   1.083       .  S
C659        C660   1.417       .  A
C659        S663   1.798       .  S
C660        C661   1.399       .  A
C661        C662   1.412       .  A
C661        H668   1.084       .  S
C662        S664   1.806       .  S
S663        H666   1.407       .  S
S664        H665   1.398       .  S
C669        C670   1.401       .  A
C669        C674   1.412       .  A
C670        C671   1.412       .  A
C670        H679   1.082   1_545  S
C671        C672   1.443       .  A
C671        S675   1.813   1_545  S
C672        C673   1.421       .  A
C673        C674   1.404       .  A
C673        H680   1.081       .  S
C674        S676   1.799   1_455  S
S675        H678   1.406       .  S
S676        H677   1.407       .  S
C681        C682   1.426       .  A
C681        C686   1.436       .  A
C682        C683   1.415   1_455  A
C682        H691   1.079       .  S
C683        C684   1.414   1_655  A
C683        S687   1.802       .  S
C684        C685   1.407       .  A
C685        C686   1.416       .  A
C685        H692   1.082       .  S
C686        S688   1.811       .  S
S687        H690   1.407       .  S
S688        H689   1.406       .  S
C693        C694   1.396       .  A
C693        C698   1.412       .  A
C694        C695   1.409       .  A
C694        H703   1.085       .  S
C695        C696   1.448       .  A
C695        S699   1.804       .  S
C696        C697   1.425       .  A
C697        C698   1.415       .  A
C697        H704   1.083       .  S
C698        S700   1.803   1_545  S
S699        H702   1.406       .  S
S700        H701   1.405       .  S
C705        C706   1.423       .  A
C705        C710   1.445       .  A
C706        C707   1.406       .  A
C706        H715   1.074       .  S
C707        C708   1.411       .  A
C707        S711   1.805   1_565  S
C708        C709   1.398       .  A
C709        C710   1.408       .  A
C709        H716   1.084       .  S
C710        S712   1.811       .  S
S711        H714   1.407       .  S
S712        H713   1.394       .  S
C717        C718   1.425       .  A
C717        C722   1.451       .  A
C718        C719   1.411       .  A
C718        H727   1.083       .  S
C719        C720   1.409       .  A
C719        S723   1.804   1_665  S
C720        C721   1.391       .  A
C721        C722   1.408       .  A
C721        H728   1.084       .  S
C722        S724   1.812       .  S
S723        H726   1.405       .  S
S724        H725   1.408       .  S
C729        C730   1.421       .  A
C729        C734   1.442       .  A
C730        C731   1.404       .  A
C730        H739   1.074       .  S
C731        C732   1.411       .  A
C731        S735   1.803       .  S
C732        C733   1.402       .  A
C733        C734   1.408       .  A
C733        H740   1.084       .  S
C734        S736   1.808       .  S
S735        H738   1.407       .  S
S736        H737   1.397       .  S
C741        C742   1.428       .  A
C741        C746   1.436       .  A
C742        C743   1.405       .  A
C742        H751   1.077       .  S
C743        C744   1.407       .  A
C743        S747   1.803   1_556  S
C744        C745   1.403       .  A
C745        C746   1.411       .  A
C745        H752   1.082   1_655  S
C746        S748   1.808       .  S
S747        H750   1.407       .  S
S748        H749   1.407       .  S
