geometry optimzed in LAMMPS
_audit_creation_date              2020-11-30 
_audit_creation_method            'lammps2cif' 
_symmetry_space_group_name_H-M    'P1' 
_symmetry_Int_Tables_number       1 
_symmetry_cell_setting            triclinic 
loop_ 
_symmetry_equiv_pos_as_xyz 
  x,y,z 
_cell_length_a                    53.31690195 
_cell_length_b                    53.422604946895 
_cell_length_c                    35.96209322877581 
_cell_angle_alpha                 90.56026148014509 
_cell_angle_beta                  89.97316919524543 
_cell_angle_gamma                 119.5745092494556 
loop_ 
_atom_site_label 
_atom_site_type_symbol 
_atom_site_fract_x 
_atom_site_fract_y 
_atom_site_fract_z 
_atom_site_charge 
C1          C  0.49814324  0.99797700  0.78408000     0.45500
H2          H  0.49766617  0.99658112  0.81482359    -0.03500
C3          C  0.99917735  0.50050165  0.71176636     0.45500
H4          H  0.00009865  0.50162486  0.68096771    -0.03500
C5          C  0.47266203  0.47164745  0.76496998    -0.17200
C6          C  0.49671163  0.02426430  0.76896227    -0.17000
C7          C  0.02573961  0.50003303  0.76702700    -0.17400
C8          C  0.47370619  0.47262835  0.72660816    -0.17300
C9          C  0.99646786  0.02500458  0.73057179    -0.16900
C10         C  0.02641429  0.50226348  0.72882667    -0.17200
O11         O  0.31358900  0.10692195  0.05304300    -0.78500
C12         C  0.26525931  0.15614771  0.05880996     0.82600
O13         O  0.29208387  0.13472675  0.93002305    -0.79600
O14         O  0.33135577  0.22458685  0.97999891    -0.81100
O15         O  0.38790798  0.20995479  0.05759153    -0.80900
O16         O  0.36038609  0.13890342  0.06037858    -0.79500
Zn17       Zn  0.29786776  0.12902243  0.02400542     1.55700
O18         O  0.35422114  0.22293520  0.06360206    -0.80900
Cd19       Cd  0.36714796  0.17198217  0.02644378     1.59700
Cd20       Cd  0.33173403  0.16504701  0.95170895     1.59600
O21         O  0.39213945  0.16869693  0.98426106    -0.80900
O22         O  0.32950164  0.16510938  0.00703825    -1.91400
Cd23       Cd  0.32357398  0.19716712  0.02394554     1.59900
O24         O  0.36298153  0.15497783  0.93482812    -0.80800
O25         O  0.28218294  0.18084811  0.04519331    -0.79500
C26         C  0.27137846  0.11277490  0.94525589     0.83100
C27         C  0.33863318  0.11431724  0.06617160     0.82700
O28         O  0.27070019  0.13547702  0.05687609    -0.78400
C29         C  0.37909939  0.22637043  0.07137163     0.83500
O30         O  0.27226326  0.10701797  0.97951799    -0.78500
C31         C  0.38617890  0.15933574  0.95077412     0.83700
C32         C  0.34109379  0.22635779  0.94715804     0.84000
O33         O  0.34316080  0.20573212  0.93207651    -0.81000
C34         C  0.38146356  0.37583558  0.84626591     0.03200
C35         C  0.35677361  0.37725070  0.85786317    -0.13000
C36         C  0.33367572  0.35359845  0.87498454     0.00700
C37         C  0.33537650  0.32885688  0.88141282    -0.11500
C38         C  0.35980563  0.32727424  0.87133964     0.03200
C39         C  0.38243460  0.35026451  0.85266197    -0.10900
H40         H  0.35563815  0.39675232  0.85414109     0.08800
H41         H  0.31811575  0.31116856  0.89633950     0.06300
H42         H  0.40078703  0.34829099  0.84385029     0.06100
O43         O  0.14024613  0.36399957  0.04871838    -0.78500
C44         C  0.22743544  0.38221037  0.05991859     0.82600
O45         O  0.16195711  0.36726423  0.92235100    -0.79600
O46         O  0.22460892  0.32749932  0.97422811    -0.81100
O47         O  0.13212191  0.27763235  0.05040341    -0.80900
O48         O  0.10556554  0.32039427  0.03130980    -0.79500
Zn49       Zn  0.17362198  0.36988416  0.01612347     1.55700
O50         O  0.17745538  0.28643253  0.04532466    -0.80900
Cd51       Cd  0.12974040  0.30345922  0.01068028     1.59700
Cd52       Cd  0.16969281  0.33474062  0.94059142     1.59600
O53         O  0.10994019  0.27589435  0.96711840    -0.80900
O54         O  0.16810270  0.33404696  0.99606918    -1.91400
Cd55       Cd  0.19719254  0.32521640  0.01659134     1.59900
O56         O  0.13874344  0.29516213  0.91824856    -0.80800
O57         O  0.22394575  0.35724656  0.05325983    -0.79500
C58         C  0.16457551  0.38932123  0.94000179     0.83100
C59         C  0.11388885  0.34429773  0.04809825     0.82700
O60         O  0.21054146  0.39036470  0.04634906    -0.78400
C61         C  0.15184708  0.27168272  0.05796410     0.83500
O62         O  0.17202925  0.39369594  0.97415964    -0.78500
C63         C  0.11654825  0.27468589  0.93342687     0.83700
C64         C  0.22832000  0.33676672  0.94090316     0.84000
O65         O  0.21021768  0.34205992  0.92448771    -0.81000
C66         C  0.11290391  0.12110503  0.15250013     0.03200
C67         C  0.13844230  0.12027027  0.14379564    -0.13000
C68         C  0.16158017  0.14360686  0.12602342     0.00700
C69         C  0.16041104  0.16880095  0.12060794    -0.11500
C70         C  0.13620636  0.17082508  0.13036618     0.03200
C71         C  0.11206685  0.14665936  0.14486717    -0.10900
H72         H  0.14030810  0.10154850  0.15009722     0.08800
H73         H  0.17826787  0.18682361  0.10698854     0.06300
H74         H  0.09269333  0.14791471  0.14987015     0.06100
C75         C  0.12375752  0.49973766  0.83920161     0.03200
C76         C  0.12362804  0.47427499  0.84977690    -0.13000
C77         C  0.14793389  0.47559787  0.86682625     0.00700
C78         C  0.17234000  0.50224481  0.87349775    -0.11500
C79         C  0.17261542  0.02777211  0.86494007     0.03200
C80         C  0.14833247  0.02661446  0.84776004    -0.10900
H81         H  0.10429932  0.45355290  0.84611720     0.08800
H82         H  0.19061305  0.50316583  0.88801930     0.06300
H83         H  0.14843295  0.04647996  0.84161971     0.06100
C84         C  0.00236276  0.37722781  0.15866877     0.03200
C85         C  0.47504388  0.35235626  0.15494589    -0.13000
C86         C  0.47241063  0.32748307  0.13731160     0.00700
C87         C  0.99731111  0.32769892  0.12450062    -0.11500
C88         C  0.02438442  0.35256500  0.12693135     0.03200
C89         C  0.02677665  0.37729339  0.14402045    -0.10900
H90         H  0.45602632  0.35256319  0.16509577     0.08800
H91         H  0.99538404  0.30876805  0.11043486     0.06300
H92         H  0.04741355  0.39700575  0.14463955     0.06100
C93         C  0.99946390  0.12041870  0.85028568     0.03200
C94         C  0.47339149  0.11919010  0.86136700    -0.13000
C95         C  0.47391965  0.14277467  0.87993887     0.00700
C96         C  0.00025202  0.16783613  0.88608983    -0.11500
C97         C  0.02612068  0.16910245  0.87601259     0.03200
C98         C  0.02574551  0.14516611  0.85939297    -0.10900
H99         H  0.45286918  0.10001584  0.85591877     0.08800
H100        H  0.00069351  0.18602979  0.90031303     0.06300
H101        H  0.04606869  0.14589157  0.85370142     0.06100
C102        C  0.37347262  0.49881864  0.16220397     0.03200
C103        C  0.34788448  0.47278217  0.15444294    -0.13000
C104        C  0.32463771  0.47290514  0.13625347     0.00700
C105        C  0.32717194  0.49911682  0.12570658    -0.11500
C106        C  0.35206063  0.02509863  0.13350846     0.03200
C107        C  0.37545564  0.02501184  0.15123741    -0.10900
H108        H  0.34611199  0.45242652  0.16225453     0.08800
H109        H  0.30987675  0.49932737  0.11004487     0.06300
H110        H  0.39516453  0.04513954  0.15584986     0.06100
O111        O  0.36297349  0.13532204  0.43548554    -0.78500
C112        C  0.38630371  0.22371905  0.43221406     0.82600
O113        O  0.36630852  0.15734426  0.56522086    -0.79600
O114        O  0.33210906  0.22223867  0.50951248    -0.81100
O115        O  0.27494915  0.13085554  0.43474142    -0.80900
O116        O  0.31709849  0.10153428  0.44402354    -0.79500
Zn117      Zn  0.36904707  0.16729687  0.47072244     1.55700
O118        O  0.28942445  0.17768021  0.43952368    -0.80900
Cd119      Cd  0.30114533  0.12504470  0.47149862     1.59700
Cd120      Cd  0.33367331  0.16442160  0.54440500     1.59600
O121        O  0.27398971  0.10415804  0.51571038    -0.80900
O122        O  0.33321476  0.16250931  0.48870835    -1.91400
Cd123      Cd  0.32791664  0.19375071  0.46779262     1.59900
O124        O  0.29349046  0.13357489  0.56479709    -0.80800
O125        O  0.36059521  0.21924898  0.43223124    -0.79500
C126        C  0.38774350  0.15856891  0.54771707     0.83100
C127        C  0.34203884  0.10992287  0.43021919     0.82700
O128        O  0.39313553  0.20646191  0.44749843    -0.78400
C129        C  0.27200963  0.15250347  0.42722009     0.83500
O130        O  0.39048733  0.16302781  0.51297813    -0.78500
C131        C  0.27283057  0.11119593  0.54945938     0.83700
C132        C  0.34003749  0.22513524  0.54344021     0.84000
O133        O  0.34222101  0.20548075  0.56068360    -0.81000
C134        C  0.38201508  0.37618588  0.64604637     0.03200
C135        C  0.35669946  0.37811080  0.64134467    -0.13000
C136        C  0.33209204  0.35537933  0.62471086     0.00700
C137        C  0.33247697  0.33054257  0.61334553    -0.11500
C138        C  0.35744967  0.32851998  0.61688485     0.03200
C139        C  0.38241218  0.35152103  0.63247673    -0.10900
H140        H  0.35615766  0.39725759  0.65025234     0.08800
H141        H  0.31359353  0.31318474  0.59987798     0.06300
H142        H  0.40207799  0.35029100  0.63360854     0.06100
O143        O  0.10639529  0.31933694  0.46033706    -0.78500
C144        C  0.15260124  0.26920323  0.44892694     0.82600
O145        O  0.13613123  0.29180994  0.58068450    -0.79600
O146        O  0.22529916  0.33361524  0.52732293    -0.81100
O147        O  0.21115875  0.39148001  0.46759875    -0.80900
O148        O  0.14037323  0.36531675  0.45376671    -0.79500
Zn149      Zn  0.12726790  0.30172915  0.48866534     1.55700
O150        O  0.21694535  0.35516515  0.44676162    -0.80900
Cd151      Cd  0.17099040  0.36924779  0.49137433     1.59700
Cd152      Cd  0.16621291  0.33198835  0.56240185     1.59600
O153        O  0.16531026  0.39064379  0.53528089    -0.80900
O154        O  0.16378716  0.33129691  0.50720507    -1.91400
Cd155      Cd  0.19462925  0.32525475  0.48674071     1.59900
O156        O  0.15640503  0.36223940  0.58434650    -0.80800
O157        O  0.17753439  0.28468081  0.46328837    -0.79500
C158        C  0.11300860  0.27267916  0.56503397     0.83100
C159        C  0.11530143  0.34441934  0.44686410     0.82700
O160        O  0.13240920  0.27519047  0.45291286    -0.78400
C161        C  0.22444388  0.38174681  0.44795871     0.83500
O162        O  0.10583157  0.27552854  0.53201828    -0.78500
C163        C  0.15793967  0.38439196  0.56908764     0.83700
C164        C  0.22790041  0.34136887  0.56140731     0.84000
O165        O  0.20752386  0.34207854  0.57917628    -0.81000
C166        C  0.12126804  0.00369249  0.64836229     0.03200
C167        C  0.12044983  0.47699842  0.64459088    -0.13000
C168        C  0.14363367  0.47540850  0.62873032     0.00700
C169        C  0.16849672  0.00062851  0.61862643    -0.11500
C170        C  0.17014901  0.02742688  0.62290598     0.03200
C171        C  0.14636918  0.02893332  0.63719019    -0.10900
H172        H  0.10177917  0.45738922  0.65365372     0.08800
H173        H  0.18625215  0.99929424  0.60586853     0.06300
H174        H  0.14737836  0.04965989  0.63927979     0.06100
C175        C  0.49953951  0.12145448  0.65352556     0.03200
C176        C  0.02621349  0.14717558  0.65138465    -0.13000
C177        C  0.02764997  0.17189615  0.63628820     0.00700
C178        C  0.50242774  0.17153240  0.62532466    -0.11500
C179        C  0.47583709  0.14615124  0.62605737     0.03200
C180        C  0.47438080  0.12108229  0.64030918    -0.10900
H181        H  0.04588524  0.14793658  0.66071434     0.08800
H182        H  0.50391137  0.19067119  0.61294812     0.06300
H183        H  0.45398297  0.10115997  0.63989182     0.06100
C184        C  0.50014044  0.37693304  0.34374254     0.03200
C185        C  0.47486574  0.35203504  0.35540296    -0.13000
C186        C  0.47655996  0.32907243  0.37168327     0.00700
C187        C  0.50349434  0.33140868  0.37744378    -0.11500
C188        C  0.02879519  0.35643974  0.36863125     0.03200
C189        C  0.02721202  0.37896998  0.35098432    -0.10900
H190        H  0.45407796  0.35083275  0.35302583     0.08800
H191        H  0.50484483  0.31406216  0.39115007     0.06300
H192        H  0.04700477  0.39812797  0.34363390     0.06100
C193        C  0.11922755  0.12140492  0.34415864     0.03200
C194        C  0.14415630  0.11992327  0.35305759    -0.13000
C195        C  0.16757361  0.14292317  0.37103116     0.00700
C196        C  0.16554723  0.16693394  0.38212586    -0.11500
C197        C  0.14031698  0.16810754  0.37609444     0.03200
C198        C  0.11757425  0.14595589  0.35585032    -0.10900
H199        H  0.14533450  0.10070942  0.34659525     0.08800
H200        H  0.18326050  0.18429586  0.39735223     0.06300
H201        H  0.09845262  0.14755085  0.35037777     0.06100
C202        C  0.37158091  0.98826927  0.34426744     0.03200
C203        C  0.34717014  0.46389693  0.35796535    -0.13000
C204        C  0.32464600  0.46662668  0.37361828     0.00700
C205        C  0.32572854  0.99323865  0.37390096    -0.11500
C206        C  0.34996403  0.01778940  0.36102634     0.03200
C207        C  0.37294839  0.01532162  0.34594516    -0.10900
H208        H  0.34637063  0.44322176  0.35822191     0.08800
H209        H  0.30843809  0.99522350  0.38699817     0.06300
H210        H  0.39205730  0.03442493  0.33649354     0.06100
C211        C  0.49625285  0.49809993  0.21496955     0.45500
H212        H  0.49524736  0.49990637  0.18478187    -0.03500
C213        C  0.49778003  0.49720855  0.28722378     0.45500
H214        H  0.49867448  0.49675685  0.31801932    -0.03500
C215        C  0.01909167  0.02665704  0.23216003    -0.17200
C216        C  0.46768763  0.49190186  0.23358969    -0.17000
C217        C  0.50376878  0.47525602  0.22967715    -0.17400
C218        C  0.02020738  0.02641248  0.27037619    -0.17300
C219        C  0.46813431  0.49022202  0.27176802    -0.16900
C220        C  0.50321087  0.47441429  0.26844505    -0.17200
C221        C  0.44688597  0.00004723  0.32843194    -0.09100
C222        C  0.44281082  0.48372386  0.29607721     0.07100
C223        C  0.41425181  0.46329513  0.28606708    -0.02900
C224        C  0.39116045  0.46493512  0.30199378    -0.07300
C225        C  0.39604782  0.48549348  0.32979105     0.06200
C226        C  0.42400995  0.00176926  0.34478184    -0.02400
Br227      Br  0.43203604  0.02577471  0.38821800    -0.02100
H228        H  0.46778560  0.01155724  0.34098721     0.10100
H229        H  0.36939971  0.45016009  0.29265360     0.08100
Br230      Br  0.40553914  0.43036550  0.25568383    -0.02500
C231        C  0.06614551  0.08890250  0.33702471    -0.09100
C232        C  0.09416703  0.09644565  0.32560377     0.07100
C233        C  0.09732588  0.07996385  0.29675155    -0.02900
C234        C  0.07300262  0.05602882  0.28184158    -0.07300
C235        C  0.04497712  0.04941684  0.29202951     0.06200
C236        C  0.04184498  0.06669917  0.31954533    -0.02400
Br237      Br  0.00620627  0.06522720  0.33089369    -0.02100
H238        H  0.06290941  0.10105738  0.35895686     0.10100
H239        H  0.07596873  0.04341462  0.26026117     0.08100
Br240      Br  0.13329327  0.09063022  0.27241604    -0.02500
C241        C  0.01892827  0.42998019  0.33742224    -0.09100
C242        C  0.49875767  0.40163891  0.32636801     0.07100
C243        C  0.47869636  0.39786229  0.29799759    -0.02900
C244        C  0.47927679  0.42182807  0.28166282    -0.07300
C245        C  0.50073092  0.44992171  0.29096445     0.06200
C246        C  0.02032930  0.45390128  0.31971320    -0.02400
Br247      Br  0.05117143  0.49125338  0.33352327    -0.02100
H248        H  0.03429414  0.43364612  0.35934311     0.10100
H249        H  0.46410246  0.41850855  0.25959330     0.08100
Br250      Br  0.45239744  0.36121969  0.27617079    -0.02500
C251        C  0.06346558  0.19421429  0.58718594    -0.09100
C252        C  0.05492000  0.19617564  0.62342231     0.07100
C253        C  0.06772252  0.22302555  0.64179521    -0.02900
C254        C  0.08762853  0.24776945  0.62295300    -0.07300
C255        C  0.09427682  0.24609111  0.58549290     0.06200
C256        C  0.08281496  0.21884005  0.56808338    -0.02400
Br257      Br  0.09246585  0.21376224  0.51822695    -0.02100
H258        H  0.05347024  0.17360401  0.57276456     0.10100
H259        H  0.09676736  0.26849291  0.63695231     0.08100
Br260      Br  0.05715376  0.22681506  0.69161432    -0.02500
C261        C  0.13830988  0.21379246  0.37317071    -0.09100
C262        C  0.13782864  0.19162702  0.39436405     0.07100
C263        C  0.13980410  0.19440060  0.43342829    -0.02900
C264        C  0.14472427  0.21995749  0.45045565    -0.07300
C265        C  0.14638421  0.24254598  0.42934138     0.06200
C266        C  0.14221665  0.23912931  0.39055259    -0.02400
Br267      Br  0.14380568  0.26924210  0.36032941    -0.02100
H268        H  0.13695187  0.21192716  0.34314617     0.10100
H269        H  0.14741676  0.22226814  0.48035538     0.08100
Br270      Br  0.13629162  0.16392043  0.46475704    -0.02500
C271        C  0.15855174  0.43858700  0.63817663    -0.09100
C272        C  0.14152840  0.44759221  0.61891701     0.07100
C273        C  0.12702878  0.43288315  0.58622635    -0.02900
C274        C  0.13128766  0.41093579  0.57196558    -0.07300
C275        C  0.14984547  0.40321274  0.58974199     0.06200
C276        C  0.16256537  0.41627578  0.62400621    -0.02400
Br277      Br  0.18803250  0.40677611  0.65014717    -0.02100
H278        H  0.17001164  0.45001356  0.66313641     0.10100
H279        H  0.12120156  0.40082695  0.54572413     0.08100
Br280      Br  0.10402952  0.44411159  0.55738660    -0.02500
C281        C  0.27133327  0.42580146  0.44828820    -0.09100
C282        C  0.25042368  0.40211929  0.42820177     0.07100
C283        C  0.25541924  0.39802850  0.39071669    -0.02900
C284        C  0.28061166  0.41860192  0.37340203    -0.07300
C285        C  0.30099051  0.44280154  0.39334076     0.06200
C286        C  0.29675634  0.44576794  0.43142800    -0.02400
Br287      Br  0.32523128  0.47650499  0.46174699    -0.00100
H288        H  0.26804276  0.42855330  0.47749874     0.10100
H289        H  0.28379748  0.41630724  0.34403691     0.08100
Br290      Br  0.22769979  0.36610283  0.36140861    -0.02500
C291        C  0.06418617  0.33911329  0.37009204    -0.09100
C292        C  0.05604681  0.35906891  0.38267821     0.07100
C293        C  0.06944621  0.37580944  0.41471181    -0.02900
C294        C  0.08952572  0.37142048  0.43451508    -0.07300
C295        C  0.09603403  0.35002320  0.42334792     0.06200
C296        C  0.08403543  0.33453324  0.39017015    -0.02400
Br297      Br  0.09413545  0.30698646  0.37133303    -0.02100
H298        H  0.05384014  0.32594072  0.34579746     0.10100
H299        H  0.09892586  0.38367689  0.45976165     0.08100
Br300      Br  0.05849367  0.40235008  0.43514068    -0.02500
C301        C  0.30761109  0.37081307  0.58007811    -0.09100
C302        C  0.30682891  0.35804246  0.61418171     0.07100
C303        C  0.28038844  0.34255891  0.63282077    -0.02900
C304        C  0.25494987  0.33879400  0.61629058    -0.07300
C305        C  0.25540199  0.34955249  0.58067658     0.06200
C306        C  0.28222004  0.36657974  0.56311577    -0.02400
Br307      Br  0.28562328  0.38417754  0.51569273    -0.02100
H308        H  0.32787842  0.38255679  0.56541388     0.10100
H309        H  0.23457815  0.32591326  0.63028284     0.08100
Br310      Br  0.27794168  0.32446204  0.67948425    -0.02500
C311        C  0.40452257  0.14318466  0.60383759    -0.09100
C312        C  0.40986742  0.15429829  0.56748257     0.07100
C313        C  0.43638827  0.16073719  0.55045930    -0.02900
C314        C  0.45625405  0.15590214  0.56953891    -0.07300
C315        C  0.45138134  0.14584732  0.60610024     0.06200
C316        C  0.42508954  0.13912371  0.62324569    -0.02400
Br317      Br  0.41712119  0.12620889  0.67365438    -0.02100
H318        H  0.38444424  0.13799995  0.61752035     0.10100
H319        H  0.47648335  0.16122285  0.55610415     0.08100
Br320      Br  0.44896839  0.17828836  0.50249026    -0.02500
C321        C  0.37199482  0.06206921  0.39926824    -0.09100
C322        C  0.35254654  0.04583262  0.37087607     0.07100
C323        C  0.33124310  0.05262635  0.35987993    -0.02900
C324        C  0.32864538  0.07427624  0.37868704    -0.07300
C325        C  0.34711401  0.08940674  0.40842920     0.06200
C326        C  0.36926968  0.08353599  0.41829285    -0.02400
Br327      Br  0.39357261  0.10107982  0.46097491    -0.02100
H328        H  0.38773875  0.05634228  0.40885933     0.10100
H329        H  0.31166877  0.07874964  0.37078344     0.08100
Br330      Br  0.30420012  0.03168225  0.32081008    -0.02500
C331        C  0.24805792  0.08409397  0.60689502    -0.09100
C332        C  0.24625545  0.09292532  0.57081420     0.07100
C333        C  0.21871974  0.08326878  0.55491288    -0.02900
C334        C  0.19391264  0.06340080  0.57355979    -0.07300
C335        C  0.19586561  0.05300245  0.60833852     0.06200
C336        C  0.22309684  0.06413241  0.62558617    -0.02400
Br337      Br  0.22699833  0.05204139  0.67422916    -0.02100
H338        H  0.26895536  0.09179090  0.61994132     0.10100
H339        H  0.17304189  0.05515937  0.56018234     0.08100
Br340      Br  0.21351381  0.09710462  0.50830024    -0.02500
C341        C  0.22005819  0.12286213  0.41336790    -0.09100
C342        C  0.24636368  0.14777904  0.40612654     0.07100
C343        C  0.24670753  0.16886617  0.38262803    -0.02900
C344        C  0.22073482  0.16577357  0.36931647    -0.07300
C345        C  0.19422383  0.14222370  0.37974525     0.06200
C346        C  0.19399930  0.12035514  0.40152750    -0.02400
Br347      Br  0.15916743  0.08882339  0.42064300    -0.02100
H348        H  0.21956925  0.10624214  0.43053836     0.10100
H349        H  0.22114111  0.18242148  0.35206375     0.08100
Br350      Br  0.28180963  0.20213656  0.36760952    -0.02500
C351        C  0.40725954  0.25733336  0.37918179    -0.09100
C352        C  0.40891203  0.25069743  0.41643318     0.07100
C353        C  0.43126028  0.27096816  0.43926918    -0.02900
C354        C  0.45187220  0.29713190  0.42451366    -0.07300
C355        C  0.45114628  0.30344070  0.38682445     0.06200
C356        C  0.42848884  0.28330399  0.36405666    -0.02400
Br357      Br  0.42685103  0.28898822  0.31181277    -0.02100
H358        H  0.38988715  0.24189512  0.36156160     0.10100
H359        H  0.46917184  0.31240694  0.44236993     0.08100
Br360      Br  0.43417181  0.26431578  0.49110102    -0.02500
C361        C  0.33932630  0.25144792  0.60060869    -0.09100
C362        C  0.34711401  0.25229842  0.56312552     0.07100
C363        C  0.36112944  0.27918022  0.54495314    -0.02900
C364        C  0.36625923  0.30419082  0.56403179    -0.07300
C365        C  0.35730320  0.30301468  0.60084388     0.06200
C366        C  0.34384847  0.27647114  0.61926008    -0.02400
Br367      Br  0.32990302  0.27332623  0.66912834    -0.02100
H368        H  0.32855175  0.23108325  0.61496008     0.10100
H369        H  0.37617269  0.32452833  0.54955378     0.08100
Br370      Br  0.37394479  0.28355884  0.49424740    -0.02500
C371        C  0.40683803  0.47873968  0.16620775    -0.09100
C372        C  0.39849409  0.49829361  0.17977761     0.07100
C373        C  0.41367616  0.51616618  0.21036425    -0.02900
C374        C  0.43703634  0.51477349  0.22577795    -0.07300
C375        C  0.44468197  0.49446877  0.21309539     0.06200
C376        C  0.42922231  0.47630469  0.18293068    -0.02400
Br377      Br  0.43451797  0.44507463  0.16648104    -0.02100
H378        H  0.39528260  0.46459915  0.14305348     0.10100
H379        H  0.44849037  0.02876280  0.24911209     0.08100
Br380      Br  0.40166555  0.04040999  0.23530317    -0.02500
C381        C  0.49613894  0.42023285  0.15481193    -0.09100
C382        C  0.00551845  0.40413230  0.17503802     0.07100
C383        C  0.52161507  0.41623657  0.20769708    -0.02900
C384        C  0.52480672  0.44214907  0.22165331    -0.07300
C385        C  0.51021334  0.45539784  0.20557769     0.06200
C386        C  0.50012157  0.44664063  0.16850821    -0.02400
Br387      Br  0.50150279  0.47222544  0.13040239    -0.02100
H388        H  0.98751695  0.41314939  0.12690508     0.10100
H389        H  0.53771998  0.45111305  0.24663069     0.08100
Br390      Br  0.03816976  0.39743545  0.23550282    -0.02500
C391        C  0.07068093  0.10157858  0.19608143    -0.09100
C392        C  0.08741642  0.09608150  0.17034310     0.07100
C393        C  0.07864443  0.06685343  0.16191022    -0.02900
C394        C  0.05630491  0.04470753  0.18208734    -0.07300
C395        C  0.04062724  0.05059835  0.20868494     0.06200
C396        C  0.04673314  0.07922014  0.21345196    -0.02400
Br397      Br  0.02131687  0.08875381  0.23976313    -0.02100
H398        H  0.07584953  0.12341078  0.20266610     0.10100
H399        H  0.05107097  0.02265535  0.17681678     0.08100
Br400      Br  0.09347909  0.05489489  0.12087166    -0.02500
C401        C  0.09132991  0.22187024  0.93049160    -0.09100
C402        C  0.09802346  0.24779249  0.91295535     0.07100
C403        C  0.08380040  0.24706058  0.87968401    -0.02900
C404        C  0.06135995  0.22073196  0.86640312    -0.07300
C405        C  0.05340736  0.19511209  0.88558965     0.06200
C406        C  0.06925125  0.19562974  0.91704671    -0.02400
Br407      Br  0.05962793  0.16153751  0.94476399    -0.02100
H408        H  0.10245937  0.22221191  0.95575008     0.10100
H409        H  0.04919418  0.22040161  0.84217021     0.08100
Br410      Br  0.09215523  0.28145880  0.85367580    -0.02500
C411        C  0.16394803  0.24888830  0.10933239    -0.09100
C412        C  0.14457757  0.24657982  0.08144421     0.07100
C413        C  0.11919164  0.21989161  0.07545781    -0.02900
C414        C  0.11520381  0.19553638  0.09458698    -0.07300
C415        C  0.13587879  0.19741954  0.12019258     0.06200
C416        C  0.15945573  0.22471758  0.12922079    -0.02400
Br417      Br  0.18666924  0.22986406  0.16762250    -0.02100
H418        H  0.18292042  0.26945802  0.11519216     0.10100
H419        H  0.09701611  0.17473751  0.08736870     0.08100
Br420      Br  0.09074814  0.21442238  0.03871359    -0.02500
C421        C  0.14522365  0.44798827  0.92234684    -0.09100
C422        C  0.14728321  0.45022771  0.88363498     0.07100
C423        C  0.15350820  0.43145061  0.86314512    -0.02900
C424        C  0.15869651  0.41146228  0.88177755    -0.07300
C425        C  0.15797603  0.41002327  0.92092944     0.06200
C426        C  0.15023486  0.42814488  0.94111859    -0.02400
Br427      Br  0.14521475  0.42708202  0.99420771    -0.02100
H428        H  0.14047794  0.46249740  0.93823354     0.10100
H429        H  0.16406259  0.39755596  0.86560007     0.08100
Br430      Br  0.15650711  0.43350907  0.81001277    -0.02500
C431        C  0.09749705  0.36019744  0.10361709    -0.09100
C432        C  0.09223594  0.34905562  0.06718174     0.07100
C433        C  0.06562353  0.34122739  0.05001147    -0.02900
C434        C  0.04444029  0.34358371  0.06975267    -0.07300
C435        C  0.04892218  0.35322306  0.10688084     0.06200
C436        C  0.07596691  0.36206304  0.12374045    -0.02400
Br437      Br  0.08396011  0.37442060  0.17475107    -0.02100
H438        H  0.11792920  0.36622528  0.11702576     0.10100
H439        H  0.02407348  0.33746632  0.05607661     0.08100
Br440      Br  0.05714189  0.32786978  0.99932705    -0.02500
C441        C  0.24774038  0.42077643  0.10811651    -0.09100
C442        C  0.25178381  0.40240349  0.08378142     0.07100
C443        C  0.27932455  0.40467372  0.08170814    -0.02900
C444        C  0.30252100  0.42650303  0.10148441    -0.07300
C445        C  0.29880422  0.44605612  0.12383944     0.06200
C446        C  0.27080262  0.44214017  0.12850906    -0.02400
Br447      Br  0.26289871  0.46547887  0.16224774    -0.02100
H448        H  0.22657965  0.41872497  0.11098103     0.10100
H449        H  0.32390072  0.42930996  0.09751118     0.08100
Br450      Br  0.28764222  0.38078672  0.04968373    -0.02500
C451        C  0.28292600  0.34264407  0.86806603    -0.09100
C452        C  0.30825897  0.35446032  0.88954812     0.07100
C453        C  0.30713734  0.36088399  0.92731001    -0.02900
C454        C  0.28096413  0.35527580  0.94304594    -0.07300
C455        C  0.25540965  0.34297798  0.92194531     0.06200
C456        C  0.25656597  0.33684178  0.88391053    -0.02400
Br457      Br  0.22254098  0.31753843  0.85352523    -0.02100
H458        H  0.28338530  0.33646215  0.83935471     0.10100
H459        H  0.28049562  0.36012157  0.97225603     0.08100
Br460      Br  0.34040757  0.37531322  0.95913119    -0.02500
C461        C  0.24886091  0.08574978  0.88639429    -0.09100
C462        C  0.24548440  0.09372397  0.92262805     0.07100
C463        C  0.21730095  0.08322572  0.93658013    -0.02900
C464        C  0.19339752  0.06416122  0.91515102    -0.07300
C465        C  0.19690578  0.05464974  0.88009730     0.06200
C466        C  0.22490049  0.06594938  0.86546936    -0.02400
Br467      Br  0.23136433  0.05325603  0.81817277    -0.02100
H468        H  0.27027984  0.09377779  0.87506701     0.10100
H469        H  0.17202359  0.05513670  0.92701552     0.08100
Br470      Br  0.20991275  0.09363889  0.98490085    -0.02500
C471        C  0.19210047  0.14989467  0.07132593    -0.09100
C472        C  0.18613497  0.14204693  0.10887575     0.07100
C473        C  0.20585377  0.13728173  0.12947749    -0.02900
C474        C  0.23127247  0.14111763  0.11253016    -0.07300
C475        C  0.23788452  0.15082950  0.07572131     0.06200
C476        C  0.21786378  0.15493466  0.05501564    -0.02400
Br477      Br  0.22461239  0.16766715  0.00436296    -0.02100
H478        H  0.17711360  0.15349458  0.05498760     0.10100
H479        H  0.24652171  0.13777564  0.12862566     0.08100
Br480      Br  0.20050212  0.12829876  0.18137231    -0.02500
C481        C  0.36783054  0.30483408  0.92535504    -0.09100
C482        C  0.36264363  0.30349862  0.88710566     0.07100
C483        C  0.35345478  0.27740917  0.86775686    -0.02900
C484        C  0.34779182  0.25258365  0.88738574    -0.07300
C485        C  0.35053094  0.25337652  0.92639735     0.06200
C486        C  0.36175542  0.28022332  0.94510737    -0.02400
Br487      Br  0.36892702  0.28533432  0.99763812    -0.02100
H488        H  0.37479011  0.32490906  0.94040619     0.10100
H489        H  0.33973374  0.23236330  0.87236353     0.08100
Br490      Br  0.34636601  0.27452020  0.81524225    -0.02500
C491        C  0.42150935  0.14173718  0.95108237    -0.09100
C492        C  0.40648939  0.15254012  0.93067717     0.07100
C493        C  0.41165850  0.15687592  0.89204530    -0.02900
C494        C  0.43226968  0.15146452  0.87509324    -0.07300
C495        C  0.44781252  0.14158346  0.89592171     0.06200
C496        C  0.44197816  0.13632014  0.93407766    -0.02400
Br497      Br  0.46282844  0.12338000  0.96450661    -0.02100
H498        H  0.41767186  0.13791351  0.98057955     0.10100
H499        H  0.43725022  0.15639407  0.84599446     0.08100
Br500      Br  0.39366880  0.17296788  0.86166796    -0.02500
C501        C  0.44002941  0.27434040  0.13747582    -0.09100
C502        C  0.44415203  0.30168763  0.12839137     0.07100
C503        C  0.42396104  0.30334479  0.10466941    -0.02900
C504        C  0.40129107  0.27814589  0.08913227    -0.07300
C505        C  0.39901629  0.25116435  0.09518133     0.06200
C506        C  0.41792791  0.24927174  0.12091276    -0.02400
Br507      Br  0.41471747  0.21309070  0.13419934    -0.02100
H508        H  0.45518960  0.27262973  0.15584497     0.10100
H509        H  0.38669774  0.27992746  0.07009293     0.08100
Br510      Br  0.42852159  0.33937302  0.08790269    -0.02500
C511        C  0.33159656  0.05776178  0.13449092    -0.09100
C512        C  0.35285658  0.05170396  0.12116315     0.07100
C513        C  0.37054273  0.06779297  0.09155298    -0.02900
C514        C  0.36603651  0.08877812  0.07496297    -0.07300
C515        C  0.34363841  0.09357470  0.08680994     0.06200
C516        C  0.32682601  0.07847606  0.11749648    -0.02400
Br517      Br  0.29753174  0.08562140  0.13739024    -0.02100
H518        H  0.31781134  0.04538579  0.15721736     0.10100
H519        H  0.37921659  0.10046715  0.05142946     0.08100
Br520      Br  0.39885960  0.05984671  0.07002708    -0.02500
C521        C  0.45643935  0.43415180  0.81425952    -0.09100
C522        C  0.44913768  0.44793624  0.78677818     0.07100
C523        C  0.41964906  0.43882449  0.78077742    -0.02900
C524        C  0.39839450  0.41515374  0.79977053    -0.07300
C525        C  0.40548892  0.40078543  0.82670284     0.06200
C526        C  0.43509491  0.41114627  0.83456629    -0.02400
Br527      Br  0.44819378  0.39681609  0.87451071    -0.02100
H528        H  0.47894430  0.44140354  0.82007991     0.10100
H529        H  0.37599919  0.40811171  0.79355733     0.08100
Br530      Br  0.40646071  0.45882487  0.74953435    -0.02500
C531        C  0.01852041  0.07669582  0.78315124    -0.09100
C532        C  0.49887199  0.04827780  0.79311698     0.07100
C533        C  0.48042610  0.04378704  0.82359448    -0.02900
C534        C  0.48126680  0.06743830  0.84215504    -0.07300
C535        C  0.99961892  0.09580361  0.83041625     0.06200
C536        C  0.01810205  0.10012343  0.79996404    -0.02400
Br537      Br  0.04068744  0.13671187  0.77632468    -0.02100
H538        H  0.03338262  0.08073658  0.76039222     0.10100
H539        H  0.46699995  0.06353386  0.86559305     0.08100
Br540      Br  0.45176107  0.00617777  0.83915540    -0.02500
C541        C  0.08649717  0.01541698  0.83654243    -0.09100
C542        C  0.09751522  0.49828986  0.82194778     0.07100
C543        C  0.08322026  0.48018985  0.79113526    -0.02900
C544        C  0.05858631  0.47937799  0.77607193    -0.07300
C545        C  0.04857665  0.49781174  0.78910695     0.06200
C546        C  0.06254749  0.01552495  0.82040718    -0.02400
Br547      Br  0.05212537  0.04244210  0.84060005    -0.02100
H548        H  0.09697290  0.02932255  0.86033107     0.10100
H549        H  0.04803060  0.46520180  0.75255892     0.08100
Br550      Br  0.09807170  0.45862156  0.76537806    -0.02500
C551        C  0.41661370  0.42879946  0.65287918    -0.09100
C552        C  0.40808283  0.40051816  0.66371340     0.07100
C553        C  0.42362043  0.39637819  0.69257061    -0.02900
C554        C  0.44635520  0.42017903  0.71036487    -0.07300
C555        C  0.45323158  0.44845961  0.70170816     0.06200
C556        C  0.43866147  0.45261475  0.67158414    -0.02400
Br557      Br  0.44475379  0.48964743  0.65704384    -0.02100
H558        H  0.40524575  0.43246233  0.63047871     0.10100
H559        H  0.45773906  0.41648076  0.73269579     0.08100
Br560      Br  0.41296853  0.35920616  0.71239956    -0.02500
C561        C  0.01614247  0.06219804  0.68104345    -0.09100
C562        C  0.49517748  0.04783734  0.70835335     0.07100
C563        C  0.47394907  0.05595297  0.71426011    -0.02900
C564        C  0.47583584  0.07978457  0.69607421    -0.07300
C565        C  0.49769719  0.09519246  0.67022153     0.06200
C566        C  0.01722381  0.08528279  0.66149117    -0.02400
Br567      Br  0.04434501  0.10072624  0.62144103    -0.02100
H568        H  0.03196847  0.05558879  0.67507841     0.10100
H569        H  0.46007344  0.08640527  0.70240669     0.08100
Br570      Br  0.44085048  0.03472524  0.74492767    -0.02500
C571        C  0.04499439  0.98539600  0.67648967    -0.09100
C572        C  0.05072037  0.00548940  0.70509145     0.07100
C573        C  0.07943316  0.02740307  0.71128468    -0.02900
C574        C  0.10199860  0.02662459  0.69236686    -0.07300
C575        C  0.09650041  0.00525141  0.66539079     0.06200
C576        C  0.06741307  0.98547604  0.65614656    -0.02400
Br577      Br  0.05641951  0.95932749  0.61460853    -0.02100
H578        H  0.02290903  0.96922034  0.67026907     0.10100
H579        H  0.12398394  0.04269561  0.69914922     0.08100
Br580      Br  0.08892873  0.55966272  0.74364181    -0.02500
C581        C  0.49814291  0.49797663  0.78407857     0.45500
H582        H  0.49766609  0.49658084  0.81482206    -0.03500
C583        C  0.99917794  0.00050179  0.71176706     0.45500
H584        H  0.00009933  0.00162501  0.68096841    -0.03500
C585        C  0.47266260  0.97164771  0.76497124    -0.17200
C586        C  0.49671143  0.52426400  0.76896095    -0.17000
C587        C  0.02574007  0.00003336  0.76702784    -0.17400
C588        C  0.47370693  0.97262878  0.72660946    -0.17300
C589        C  0.99646753  0.52500461  0.73057119    -0.16900
C590        C  0.02641482  0.00226379  0.72882753    -0.17200
O591        O  0.31358971  0.60692060  0.05304236    -0.78500
C592        C  0.26525934  0.65614581  0.05880840     0.82600
O593        O  0.29208325  0.63472472  0.93002316    -0.79600
O594        O  0.33135656  0.72458553  0.97999708    -0.81100
O595        O  0.38790768  0.70995367  0.05759173    -0.80900
O596        O  0.36038686  0.63890207  0.06037739    -0.79500
Zn597      Zn  0.29786819  0.62902091  0.02400511     1.55700
O598        O  0.35422055  0.72293378  0.06360143    -0.80900
Cd599      Cd  0.36714835  0.67198114  0.02644315     1.59700
Cd600      Cd  0.33173363  0.66504481  0.95170845     1.59600
O601        O  0.39213989  0.66869647  0.98425982    -0.80900
O602        O  0.32950185  0.66510791  0.00703768    -1.91400
Cd603      Cd  0.32357402  0.69716570  0.02394412     1.59900
O604        O  0.36298076  0.65497520  0.93482795    -0.80800
O605        O  0.28218256  0.68084601  0.04519087    -0.79500
C606        C  0.27137788  0.61277301  0.94525623     0.83100
C607        C  0.33863399  0.61431589  0.06617060     0.82700
O608        O  0.27070091  0.63547553  0.05687603    -0.78400
C609        C  0.37909875  0.72636912  0.07137168     0.83500
O610        O  0.27226299  0.60701611  0.97951827    -0.78500
C611        C  0.38617872  0.65933424  0.95077332     0.83700
C612        C  0.34109422  0.72635576  0.94715606     0.84000
O613        O  0.34316060  0.70572964  0.93207492    -0.81000
C614        C  0.38146465  0.87583437  0.84626611     0.03200
C615        C  0.35677479  0.87724940  0.85786401    -0.13000
C616        C  0.33367696  0.85359702  0.87498537     0.00700
C617        C  0.33537785  0.82885546  0.88141309    -0.11500
C618        C  0.35980673  0.82727271  0.87133903     0.03200
C619        C  0.38243568  0.85026317  0.85266144    -0.10900
H620        H  0.35563927  0.89675104  0.85414232     0.08800
H621        H  0.31811697  0.81116679  0.89633990     0.06300
H622        H  0.40078774  0.84828962  0.84384911     0.06100
O623        O  0.14024508  0.86399897  0.04871694    -0.78500
C624        C  0.22743474  0.88221077  0.05991862     0.82600
O625        O  0.16195932  0.86726529  0.92234946    -0.79600
O626        O  0.22461028  0.82750017  0.97422876    -0.81100
O627        O  0.13212227  0.77763154  0.05040144    -0.80900
O628        O  0.10556523  0.82039325  0.03130861    -0.79500
Zn629      Zn  0.17362151  0.86988426  0.01612257     1.55700
O630        O  0.17745616  0.78643287  0.04532403    -0.80900
Cd631      Cd  0.12974085  0.80345902  0.01067891     1.59700
Cd632      Cd  0.16969434  0.83474134  0.94059044     1.59600
O633        O  0.10994123  0.77589493  0.96711622    -0.80900
O634        O  0.16810316  0.83404727  0.99606826    -1.91400
Cd635      Cd  0.19719304  0.82521692  0.01659109     1.59900
O636        O  0.13874485  0.79516322  0.91824682    -0.80800
O637        O  0.22394533  0.85724705  0.05326002    -0.79500
C638        C  0.16457633  0.88932171  0.94000029     0.83100
C639        C  0.11388797  0.84429672  0.04809680     0.82700
O640        O  0.21054072  0.89036494  0.04634875    -0.78400
C641        C  0.15184769  0.77168238  0.05796265     0.83500
O642        O  0.17202876  0.89369617  0.97415864    -0.78500
C643        C  0.11654949  0.77468687  0.93342467     0.83700
C644        C  0.22832147  0.83676701  0.94090354     0.84000
O645        O  0.21021922  0.84206001  0.92448747    -0.81000
C646        C  0.11290381  0.62110397  0.15249759     0.03200
C647        C  0.13844180  0.62026859  0.14379265    -0.13000
C648        C  0.16157999  0.64360511  0.12602081     0.00700
C649        C  0.16041150  0.66879965  0.12060588    -0.11500
C650        C  0.13620701  0.67082416  0.13036410     0.03200
C651        C  0.11206730  0.64665860  0.14486497    -0.10900
H652        H  0.14030702  0.60154648  0.15009366     0.08800
H653        H  0.17826844  0.68682212  0.10698688     0.06300
H654        H  0.09269385  0.64791432  0.14986823     0.06100
C655        C  0.12375854  0.99973857  0.83920173     0.03200
C656        C  0.12362899  0.97427576  0.84977665    -0.13000
C657        C  0.14793508  0.97559858  0.86682535     0.00700
C658        C  0.17234116  0.00224541  0.87349708    -0.11500
C659        C  0.17261420  0.52777141  0.86494042     0.03200
C660        C  0.14833136  0.52661361  0.84776003    -0.10900
H661        H  0.10430063  0.95355408  0.84611696     0.08800
H662        H  0.19061440  0.00316627  0.88801855     0.06300
H663        H  0.14843180  0.54647919  0.84161946     0.06100
C664        C  0.00236131  0.87722736  0.15866587     0.03200
C665        C  0.47504292  0.85235557  0.15494594    -0.13000
C666        C  0.47240939  0.82748175  0.13731293     0.00700
C667        C  0.99730932  0.82769827  0.12449750    -0.11500
C668        C  0.02438274  0.85256435  0.12692817     0.03200
C669        C  0.02677500  0.87729273  0.14401726    -0.10900
H670        H  0.45602573  0.85256299  0.16509527     0.08800
H671        H  0.99538216  0.80876753  0.11043208     0.06300
H672        H  0.04741224  0.89700531  0.14463633     0.06100
C673        C  0.99946522  0.62042030  0.85028247     0.03200
C674        C  0.47339181  0.61919011  0.86136477    -0.13000
C675        C  0.47391969  0.64277479  0.87993593     0.00700
C676        C  0.00025307  0.66783827  0.88608481    -0.11500
C677        C  0.02612177  0.66910456  0.87600788     0.03200
C678        C  0.02574685  0.64516802  0.85938916    -0.10900
H679        H  0.45286962  0.60001546  0.85591740     0.08800
H680        H  0.00069448  0.68603189  0.90030754     0.06300
H681        H  0.04606973  0.64589342  0.85369837     0.06100
C682        C  0.37347216  0.99881940  0.16220257     0.03200
C683        C  0.34788386  0.97278303  0.15444189    -0.13000
C684        C  0.32463700  0.97290610  0.13625276     0.00700
C685        C  0.32717143  0.99911783  0.12570601    -0.11500
C686        C  0.35206118  0.52509765  0.13350917     0.03200
C687        C  0.37545606  0.52501099  0.15123854    -0.10900
H688        H  0.34611130  0.95242733  0.16225345     0.08800
H689        H  0.30987583  0.99932848  0.11004408     0.06300
H690        H  0.39516497  0.54513883  0.15585104     0.06100
O691        O  0.36297470  0.63532232  0.43548599    -0.78500
C692        C  0.38630472  0.72371923  0.43221046     0.82600
O693        O  0.36630869  0.65734529  0.56521960    -0.79600
O694        O  0.33211148  0.72224088  0.50951034    -0.81100
O695        O  0.27495114  0.63085792  0.43473829    -0.80900
O696        O  0.31709921  0.60153536  0.44402257    -0.79500
Zn697      Zn  0.36904847  0.66729797  0.47072140     1.55700
O698        O  0.28942602  0.67768241  0.43952223    -0.80900
Cd699      Cd  0.30114641  0.62504651  0.47149644     1.59700
Cd700      Cd  0.33367394  0.66442302  0.54440313     1.59600
O701        O  0.27399018  0.60416007  0.51570783    -0.80900
O702        O  0.33321605  0.66251083  0.48870654    -1.91400
Cd703      Cd  0.32791829  0.69375243  0.46779070     1.59900
O704        O  0.29349065  0.63357662  0.56479477    -0.80800
O705        O  0.36059641  0.71924966  0.43222832    -0.79500
C706        C  0.38774432  0.65857057  0.54771679     0.83100
C707        C  0.34203978  0.60992335  0.43021937     0.82700
O708        O  0.39313657  0.70646228  0.44749531    -0.78400
C709        C  0.27201148  0.65250590  0.42721775     0.83500
O710        O  0.39048904  0.66302987  0.51297790    -0.78500
C711        C  0.27283071  0.61119784  0.54945680     0.83700
C712        C  0.34003953  0.72513727  0.54343822     0.84000
O713        O  0.34222235  0.70548241  0.56068170    -0.81000
C714        C  0.38201591  0.87618656  0.64604753     0.03200
C715        C  0.35670009  0.87811125  0.64134630    -0.13000
C716        C  0.33209276  0.85537979  0.62471222     0.00700
C717        C  0.33247799  0.83054329  0.61334649    -0.11500
C718        C  0.35745088  0.82852099  0.61688519     0.03200
C719        C  0.38241319  0.85152205  0.63247718    -0.10900
H720        H  0.35615814  0.89725784  0.65025424     0.08800
H721        H  0.31359445  0.81318532  0.59987855     0.06300
H722        H  0.40207958  0.85029232  0.63360836     0.06100
O723        O  0.10639538  0.81933623  0.46033705    -0.78500
C724        C  0.15260236  0.76920407  0.44892611     0.82600
O725        O  0.13613140  0.79180881  0.58068454    -0.79600
O726        O  0.22529978  0.83361540  0.52732301    -0.81100
O727        O  0.21115845  0.89148083  0.46759987    -0.80900
O728        O  0.14037265  0.86531633  0.45376765    -0.79500
Zn729      Zn  0.12726811  0.80172891  0.48866604     1.55700
O730        O  0.21694582  0.85516647  0.44676259    -0.80900
Cd731      Cd  0.17098998  0.86924758  0.49137539     1.59700
Cd732      Cd  0.16621316  0.83198749  0.56240239     1.59600
O733        O  0.16530900  0.89064250  0.53528255    -0.80900
O734        O  0.16378742  0.83129671  0.50720559    -1.91400
Cd735      Cd  0.19462992  0.82525531  0.48674077     1.59900
O736        O  0.15640460  0.86223785  0.58434772    -0.80800
O737        O  0.17753590  0.78468217  0.46328615    -0.79500
C738        C  0.11300830  0.77267864  0.56503422     0.83100
C739        C  0.11530114  0.84441862  0.44686437     0.82700
O740        O  0.13240975  0.77519021  0.45291431    -0.78400
C741        C  0.22444380  0.88174798  0.44795962     0.83500
O742        O  0.10583126  0.77552863  0.53201883    -0.78500
C743        C  0.15793854  0.88439024  0.56908927     0.83700
C744        C  0.22790106  0.84136881  0.56140750     0.84000
O745        O  0.20752437  0.84207810  0.57917665    -0.81000
C746        C  0.12126861  0.50369389  0.64836149     0.03200
C747        C  0.12044885  0.97699683  0.64459220    -0.13000
C748        C  0.14363245  0.97540637  0.62873195     0.00700
C749        C  0.16849761  0.50063092  0.61862506    -0.11500
C750        C  0.17014956  0.52742905  0.62290492     0.03200
C751        C  0.14636956  0.52893505  0.63718958    -0.10900
H752        H  0.10177793  0.95738775  0.65365528     0.08800
H753        H  0.18625355  0.49929701  0.60586656     0.06300
H754        H  0.14737838  0.54966129  0.63927939     0.06100
C755        C  0.49953844  0.62145583  0.65352944     0.03200
C756        C  0.02621205  0.64717643  0.65138701    -0.13000
C757        C  0.02764856  0.67189727  0.63629157     0.00700
C758        C  0.50242662  0.67153483  0.62533224    -0.11500
C759        C  0.47583614  0.64615329  0.62606285     0.03200
C760        C  0.47437983  0.62108392  0.64031311    -0.10900
H761        H  0.04588420  0.64793714  0.66071573     0.08800
H762        H  0.50391029  0.69067363  0.61295690     0.06300
H763        H  0.45398217  0.60116144  0.63989427     0.06100
C764        C  0.50014174  0.87693225  0.34373844     0.03200
C765        C  0.47486698  0.85203414  0.35539820    -0.13000
C766        C  0.47656103  0.82907163  0.37167881     0.00700
C767        C  0.50349531  0.83140806  0.37744051    -0.11500
C768        C  0.02879506  0.85643892  0.36862967     0.03200
C769        C  0.02721228  0.87896960  0.35098304    -0.10900
H770        H  0.45407905  0.85083170  0.35302044     0.08800
H771        H  0.50484549  0.81406130  0.39114749     0.06300
H772        H  0.04700473  0.89812731  0.34363343     0.06100
C773        C  0.11922882  0.62140618  0.34415759     0.03200
C774        C  0.14415761  0.61992503  0.35305752    -0.13000
C775        C  0.16757455  0.64292511  0.37103124     0.00700
C776        C  0.16554780  0.66693591  0.38212520    -0.11500
C777        C  0.14031777  0.66810947  0.37609144     0.03200
C778        C  0.11757530  0.64595735  0.35584768    -0.10900
H779        H  0.14533615  0.60071094  0.34659560     0.08800
H780        H  0.18326027  0.68429765  0.39735188     0.06300
H781        H  0.09845371  0.64755213  0.35037415     0.06100
C782        C  0.37158289  0.48826933  0.34427132     0.03200
C783        C  0.34716835  0.96389710  0.35796222    -0.13000
C784        C  0.32464457  0.96662711  0.37361596     0.00700
C785        C  0.32572971  0.49323817  0.37390340    -0.11500
C786        C  0.34996556  0.51778911  0.36102954     0.03200
C787        C  0.37295014  0.51532149  0.34594921    -0.10900
H788        H  0.34636879  0.94322180  0.35821890     0.08800
H789        H  0.30843939  0.49522274  0.38699959     0.06300
H790        H  0.39205958  0.53442538  0.33649781     0.06100
C791        C  0.49625212  0.99809974  0.21496811     0.45500
H792        H  0.49524724  0.99990672  0.18478048    -0.03500
C793        C  0.49777815  0.99720700  0.28722239     0.45500
H794        H  0.49867206  0.99675470  0.31801790    -0.03500
C795        C  0.01909263  0.52665733  0.23216042    -0.17200
C796        C  0.46768653  0.99190116  0.23358770    -0.17000
C797        C  0.50376792  0.97525560  0.22967530    -0.17400
C798        C  0.02020860  0.52641303  0.27037658    -0.17300
C799        C  0.46813259  0.99022066  0.27176599    -0.16900
C800        C  0.50320951  0.97441321  0.26844316    -0.17200
C801        C  0.44688798  0.50004811  0.32843467    -0.09100
C802        C  0.44280882  0.98372273  0.29607463     0.07100
C803        C  0.41424980  0.96329437  0.28606404    -0.02900
C804        C  0.39115848  0.96493478  0.30199022    -0.07300
C805        C  0.39604581  0.98549327  0.32978727     0.06200
C806        C  0.42401205  0.50176971  0.34478531    -0.02400
Br807      Br  0.43203816  0.52577478  0.38822184    -0.02100
H808        H  0.46778834  0.51155880  0.34098989     0.10100
H809        H  0.36939767  0.95015983  0.29264980     0.08100
Br810      Br  0.40553700  0.93036461  0.25568104    -0.02500
C811        C  0.06614691  0.58890338  0.33702446    -0.09100
C812        C  0.09416840  0.59644644  0.32560335     0.07100
C813        C  0.09732724  0.57996427  0.29675163    -0.02900
C814        C  0.07300390  0.55602925  0.28184165    -0.07300
C815        C  0.04497844  0.54941745  0.29202961     0.06200
C816        C  0.04184636  0.56669983  0.31954535    -0.02400
Br817      Br  0.00620762  0.56522770  0.33089399    -0.02100
H818        H  0.06291092  0.60105832  0.35895609     0.10100
H819        H  0.07596991  0.54341499  0.26026155     0.08100
Br820      Br  0.13329477  0.59062985  0.27241701    -0.02500
C821        C  0.01892816  0.92997980  0.33742081    -0.09100
C822        C  0.49875875  0.90163800  0.32636387     0.07100
C823        C  0.47869724  0.89786119  0.29799356    -0.02900
C824        C  0.47927689  0.92182686  0.28165975    -0.07300
C825        C  0.50073028  0.94992062  0.29096194     0.06200
C826        C  0.02032887  0.95390090  0.31971214    -0.02400
Br827      Br  0.05117039  0.99125311  0.33352302    -0.02100
H828        H  0.03429400  0.93364576  0.35934182     0.10100
H829        H  0.46410216  0.91850715  0.25958991     0.08100
Br830      Br  0.45239916  0.86121861  0.27616587    -0.02500
C831        C  0.06346085  0.69421425  0.58718550    -0.09100
C832        C  0.05491833  0.69617604  0.62342359     0.07100
C833        C  0.06772387  0.72302568  0.64179720    -0.02900
C834        C  0.08763025  0.74776920  0.62295448    -0.07300
C835        C  0.09427581  0.74609070  0.58549312     0.06200
C836        C  0.08281051  0.71883972  0.56808248    -0.02400
Br837      Br  0.09245667  0.71376119  0.51822378    -0.02100
H838        H  0.05346334  0.67360469  0.57276394     0.10100
H839        H  0.09677142  0.76849224  0.63695436     0.08100
Br840      Br  0.05715905  0.72681567  0.69161827    -0.02500
C841        C  0.13831906  0.71379852  0.37316599    -0.09100
C842        C  0.13782902  0.69162904  0.39435968     0.07100
C843        C  0.13979691  0.69439883  0.43342443    -0.02900
C844        C  0.14471717  0.71995531  0.45045320    -0.07300
C845        C  0.14638547  0.74254750  0.42933911     0.06200
C846        C  0.14222647  0.73913529  0.39054891    -0.02400
Br847      Br  0.14382772  0.76925376  0.36032606    -0.02100
H848        H  0.13696750  0.71193631  0.34314141     0.10100
H849        H  0.14740388  0.72226298  0.48035370     0.08100
Br850      Br  0.13627522  0.66391432  0.46475170    -0.02500
C851        C  0.15854976  0.93858436  0.63817885    -0.09100
C852        C  0.14152674  0.94758984  0.61891909     0.07100
C853        C  0.12702704  0.93288075  0.58622848    -0.02900
C854        C  0.13128593  0.91093343  0.57196772    -0.07300
C855        C  0.14984375  0.90321038  0.58974406     0.06200
C856        C  0.16256331  0.91627310  0.62400858    -0.02400
Br857      Br  0.18802974  0.90677282  0.65015015    -0.02100
H858        H  0.17000973  0.95001101  0.66313909     0.10100
H859        H  0.12119988  0.90082464  0.54572600     0.08100
Br860      Br  0.10402779  0.94410922  0.55738875    -0.02500
C861        C  0.27133329  0.92580266  0.44828796    -0.09100
C862        C  0.25042310  0.90212054  0.42820189     0.07100
C863        C  0.25541776  0.89802952  0.39071656    -0.02900
C864        C  0.28060992  0.91860265  0.37340091    -0.07300
C865        C  0.30098938  0.94280225  0.39333924     0.06200
C866        C  0.29675608  0.94576892  0.43142669    -0.02400
Br867      Br  0.32523188  0.97650601  0.46174479    -0.00100
H868        H  0.26804358  0.92855450  0.47749804     0.10100
H869        H  0.28379497  0.91630781  0.34403628     0.08100
Br870      Br  0.22769755  0.86610375  0.36140929    -0.02500
C871        C  0.06418436  0.83911031  0.37009286    -0.09100
C872        C  0.05604648  0.85906756  0.38267699     0.07100
C873        C  0.06944718  0.87580955  0.41470917    -0.02900
C874        C  0.08952668  0.87142072  0.43451260    -0.07300
C875        C  0.09603363  0.85002209  0.42334765     0.06200
C876        C  0.08403335  0.83453020  0.39017154    -0.02400
Br877      Br  0.09413056  0.80698053  0.37133744    -0.02100
H878        H  0.05383726  0.82593650  0.34579950     0.10100
H879        H  0.09892805  0.88367866  0.45975851     0.08100
Br880      Br  0.05849633  0.90235200  0.43513616    -0.02500
C881        C  0.30761190  0.87081202  0.58007735    -0.09100
C882        C  0.30682982  0.85804310  0.61418236     0.07100
C883        C  0.28038960  0.84256122  0.63282240    -0.02900
C884        C  0.25495101  0.83879604  0.61629187    -0.07300
C885        C  0.25540284  0.84955267  0.58067665     0.06200
C886        C  0.28222078  0.86657848  0.56311484    -0.02400
Br887      Br  0.28562411  0.88417433  0.51569023    -0.02100
H888        H  0.32787875  0.88255434  0.56541266     0.10100
H889        H  0.23457947  0.82591656  0.63028500     0.08100
Br890      Br  0.27794317  0.82446701  0.67948792    -0.02500
C891        C  0.40452152  0.64318511  0.60383791    -0.09100
C892        C  0.40986791  0.65430017  0.56748358     0.07100
C893        C  0.43638987  0.66074064  0.55046239    -0.02900
C894        C  0.45625538  0.65590589  0.56954335    -0.07300
C895        C  0.45138106  0.64584960  0.60610407     0.06200
C896        C  0.42508808  0.63912429  0.62324733    -0.02400
Br897      Br  0.41711726  0.62620705  0.67365486    -0.02100
H898        H  0.38444244  0.63799914  0.61751893     0.10100
H899        H  0.47648540  0.66122779  0.55611026     0.08100
Br900      Br  0.44897164  0.67829345  0.50249455    -0.02500
C901        C  0.37199553  0.56206883  0.39927161    -0.09100
C902        C  0.35254770  0.54583219  0.37087908     0.07100
C903        C  0.33124452  0.55262597  0.35988182    -0.02900
C904        C  0.32864670  0.57427604  0.37868814    -0.07300
C905        C  0.34711492  0.58940674  0.40843050     0.06200
C906        C  0.36927029  0.58353586  0.41829536    -0.02400
Br907      Br  0.39357274  0.60108009  0.46097775    -0.02100
H908        H  0.38773930  0.55634186  0.40886353     0.10100
H909        H  0.31167018  0.57874959  0.37078356     0.08100
Br910      Br  0.30420229  0.53168186  0.32081127    -0.02500
C911        C  0.24805767  0.58409884  0.60689424    -0.09100
C912        C  0.24625530  0.59292715  0.57081136     0.07100
C913        C  0.21871963  0.58326766  0.55490825    -0.02900
C914        C  0.19391253  0.56339989  0.57355553    -0.07300
C915        C  0.19586559  0.55300473  0.60833662     0.06200
C916        C  0.22309654  0.56413743  0.62558575    -0.02400
Br917      Br  0.22699780  0.55205026  0.67423131    -0.02100
H918        H  0.26895445  0.59179773  0.61994161     0.10100
H919        H  0.17304253  0.55515642  0.56017719     0.08100
Br920      Br  0.21351309  0.59709883  0.50829237    -0.02500
C921        C  0.22006027  0.62286426  0.41336488    -0.09100
C922        C  0.24636548  0.64778164  0.40612449     0.07100
C923        C  0.24670885  0.66886939  0.38262767    -0.02900
C924        C  0.22073589  0.66577684  0.36931701    -0.07300
C925        C  0.19422513  0.64222630  0.37974531     0.06200
C926        C  0.19400112  0.62035721  0.40152585    -0.02400
Br927      Br  0.15916972  0.58882455  0.42064093    -0.02100
H928        H  0.21957173  0.60624346  0.43053402     0.10100
H929        H  0.22114183  0.68242488  0.35206555     0.08100
Br930      Br  0.28181058  0.70214052  0.36760987    -0.02500
C931        C  0.40726163  0.75733195  0.37917672    -0.09100
C932        C  0.40891295  0.75069725  0.41642893     0.07100
C933        C  0.43125993  0.77096907  0.43926544    -0.02900
C934        C  0.45187197  0.79713256  0.42450959    -0.07300
C935        C  0.45114718  0.80344007  0.38681964     0.06200
C936        C  0.42849085  0.78330242  0.36405128    -0.02400
Br937      Br  0.42685463  0.78898564  0.31180677    -0.02100
H938        H  0.38988977  0.74189264  0.36155589     0.10100
H939        H  0.46917068  0.81240833  0.44236611     0.08100
Br940      Br  0.43416943  0.76431849  0.49109845    -0.02500
C941        C  0.33933089  0.75145002  0.60060807    -0.09100
C942        C  0.34711613  0.75230047  0.56312376     0.07100
C943        C  0.36112913  0.77918214  0.54495077    -0.02900
C944        C  0.36625864  0.80419251  0.56402985    -0.07300
C945        C  0.35730491  0.80301626  0.60084313     0.06200
C946        C  0.34385294  0.77647302  0.61926003    -0.02400
Br947      Br  0.32991096  0.77332807  0.66913017    -0.02100
H948        H  0.32855840  0.73108568  0.61495999     0.10100
H949        H  0.37617003  0.82452969  0.54955156     0.08100
Br950      Br  0.37394165  0.78356120  0.49424367    -0.02500
C951        C  0.40683716  0.97873990  0.16620584    -0.09100
C952        C  0.39849366  0.99829417  0.17977580     0.07100
C953        C  0.41367605  0.01616671  0.21036228    -0.02900
C954        C  0.43703614  0.01477372  0.22577584    -0.07300
C955        C  0.44468126  0.99446860  0.21309321     0.06200
C956        C  0.42922130  0.97630455  0.18292865    -0.02400
Br957      Br  0.43451628  0.94507406  0.16647910    -0.02100
H958        H  0.39528152  0.96459943  0.14305177     0.10100
H959        H  0.44849051  0.52876281  0.24911450     0.08100
Br960      Br  0.40166517  0.54040916  0.23530486    -0.02500
C961        C  0.49613787  0.92023210  0.15481056    -0.09100
C962        C  0.00551725  0.90413188  0.17503566     0.07100
C963        C  0.52161556  0.91623720  0.20769493    -0.02900
C964        C  0.52480704  0.94214974  0.22165065    -0.07300
C965        C  0.51021292  0.95539785  0.20557556     0.06200
C966        C  0.50012039  0.94663997  0.16850649    -0.02400
Br967      Br  0.50150067  0.97222434  0.13040066    -0.02100
H968        H  0.98751624  0.91314984  0.12690289     0.10100
H969        H  0.53772082  0.95111434  0.24662818     0.08100
Br970      Br  0.03816827  0.89743413  0.23550010    -0.02500
C971        C  0.07068166  0.60157834  0.19608011    -0.09100
C972        C  0.08741635  0.59608081  0.17034103     0.07100
C973        C  0.07864382  0.56685263  0.16190824    -0.02900
C974        C  0.05630475  0.54470690  0.18208633    -0.07300
C975        C  0.04062800  0.55059837  0.20868482     0.06200
C976        C  0.04673423  0.57922027  0.21345162    -0.02400
Br977      Br  0.02131877  0.58875454  0.23976367    -0.02100
H978        H  0.07585067  0.62341079  0.20266467     0.10100
H979        H  0.05107058  0.52265522  0.17681595     0.08100
Br980      Br  0.09347690  0.55489355  0.12086844    -0.02500
C981        C  0.09132997  0.72187127  0.93048918    -0.09100
C982        C  0.09802469  0.74779373  0.91295265     0.07100
C983        C  0.08380277  0.74706227  0.87968043    -0.02900
C984        C  0.06136217  0.72073394  0.86639899    -0.07300
C985        C  0.05340843  0.69511393  0.88558577     0.06200
C986        C  0.06925124  0.69563110  0.91704374    -0.02400
Br987      Br  0.05962628  0.66153865  0.94476143    -0.02100
H988        H  0.10245858  0.72221257  0.95574835     0.10100
H989        H  0.04919722  0.72040394  0.84216528     0.08100
Br990      Br  0.09215947  0.78146074  0.85367147    -0.02500
C991        C  0.16394912  0.74888767  0.10933026    -0.09100
C992        C  0.14457835  0.74657927  0.08144243     0.07100
C993        C  0.11919242  0.71989105  0.07545608    -0.02900
C994        C  0.11520472  0.69553581  0.09458506    -0.07300
C995        C  0.13587978  0.69741880  0.12019037     0.06200
C996        C  0.15945687  0.72471679  0.12921837    -0.02400
Br997      Br  0.18667063  0.72986318  0.16761970    -0.02100
H998        H  0.18292128  0.76945705  0.11518990     0.10100
H999        H  0.09701680  0.67473685  0.08736684     0.08100
Br1000     Br  0.09074871  0.71442179  0.03871220    -0.02500
C1001       C  0.14521799  0.94798389  0.92234371    -0.09100
C1002       C  0.14728448  0.95022803  0.88363264     0.07100
C1003       C  0.15351633  0.93145555  0.86314335    -0.02900
C1004       C  0.15870426  0.91146701  0.88177587    -0.07300
C1005       C  0.15797672  0.91002336  0.92092732     0.06200
C1006       C  0.15022870  0.92814011  0.94111548    -0.02400
Br1007     Br  0.14519777  0.92706893  0.99420290    -0.02100
H1008       H  0.14046706  0.96248951  0.93823001     0.10100
H1009       H  0.16407566  0.89756430  0.86559910     0.08100
Br1010     Br  0.15652466  0.93352054  0.81001201    -0.02500
C1011       C  0.09749562  0.86019672  0.10361489    -0.09100
C1012       C  0.09223460  0.84905420  0.06717991     0.07100
C1013       C  0.06562206  0.84122531  0.05000953    -0.02900
C1014       C  0.04443866  0.84358182  0.06975021    -0.07300
C1015       C  0.04892056  0.85322203  0.10687807     0.06200
C1016       C  0.07596538  0.86206251  0.12373779    -0.02400
Br1017     Br  0.08395870  0.87442101  0.17474805    -0.02100
H1018       H  0.11792783  0.86622508  0.11702366     0.10100
H1019       H  0.02407198  0.83746406  0.05607408     0.08100
Br1020     Br  0.05714048  0.82786674  0.99932547    -0.02500
C1021       C  0.24773958  0.92077736  0.10811586    -0.09100
C1022       C  0.25178299  0.90240403  0.08378147     0.07100
C1023       C  0.27932367  0.90467405  0.08170871    -0.02900
C1024       C  0.30252005  0.92650355  0.10148474    -0.07300
C1025       C  0.29880342  0.94605707  0.12383895     0.06200
C1026       C  0.27080184  0.94214133  0.12850814    -0.02400
Br1027     Br  0.26289788  0.96548055  0.16224585    -0.02100
H1028       H  0.22657894  0.91872605  0.11097998     0.10100
H1029       H  0.32389996  0.92931030  0.09751183     0.08100
Br1030     Br  0.28764135  0.88078652  0.04968530    -0.02500
C1031       C  0.28292691  0.84264168  0.86806707    -0.09100
C1032       C  0.30826010  0.85445878  0.88954888     0.07100
C1033       C  0.30713881  0.86088374  0.92731033    -0.02900
C1034       C  0.28096572  0.85527616  0.94304624    -0.07300
C1035       C  0.25541105  0.84297764  0.92194588     0.06200
C1036       C  0.25656702  0.83684000  0.88391159    -0.02400
Br1037     Br  0.22254175  0.81753550  0.85352698    -0.02100
H1038       H  0.28338595  0.83645888  0.83935653     0.10100
H1039       H  0.28049748  0.86012297  0.97225578     0.08100
Br1040     Br  0.34040938  0.87531409  0.95913105    -0.02500
C1041       C  0.24885974  0.58574848  0.88639456    -0.09100
C1042       C  0.24548357  0.59372230  0.92262865     0.07100
C1043       C  0.21730023  0.58322414  0.93658108    -0.02900
C1044       C  0.19339657  0.56416008  0.91515189    -0.07300
C1045       C  0.19690458  0.55464902  0.88009769     0.06200
C1046       C  0.22489919  0.56594859  0.86546950    -0.02400
Br1047     Br  0.23136269  0.55325561  0.81817245    -0.02100
H1048       H  0.27027872  0.59377648  0.87506695     0.10100
H1049       H  0.17202285  0.55513559  0.92701656     0.08100
Br1050     Br  0.20991245  0.59363693  0.98490231    -0.02500
C1051       C  0.19210089  0.64989385  0.07132367    -0.09100
C1052       C  0.18613455  0.64204477  0.10887300     0.07100
C1053       C  0.20585229  0.63727762  0.12947425    -0.02900
C1054       C  0.23127109  0.64111363  0.11252717    -0.07300
C1055       C  0.23788428  0.65082729  0.07571918     0.06200
C1056       C  0.21786427  0.65493371  0.05501369    -0.02400
Br1057     Br  0.22461368  0.66766737  0.00436150    -0.02100
H1058       H  0.17711470  0.65349481  0.05498557     0.10100
H1059       H  0.24651970  0.63777029  0.12862249     0.08100
Br1060     Br  0.20049908  0.62829162  0.18136815    -0.02500
C1061       C  0.36783504  0.80483260  0.92535197    -0.09100
C1062       C  0.36264455  0.80349650  0.88710340     0.07100
C1063       C  0.35345200  0.77740625  0.86775501    -0.02900
C1064       C  0.34778893  0.75258049  0.88738360    -0.07300
C1065       C  0.35053174  0.75337428  0.92639481     0.06200
C1066       C  0.36175998  0.78022165  0.94510404    -0.02400
Br1067     Br  0.36893723  0.78533308  0.99763355    -0.02100
H1068       H  0.37479732  0.82490781  0.94040260     0.10100
H1069       H  0.33972811  0.73236003  0.87236229     0.08100
Br1070     Br  0.34635846  0.77451653  0.81524151    -0.02500
C1071       C  0.42151082  0.64173775  0.95108130    -0.09100
C1072       C  0.40648923  0.65253885  0.93067602     0.07100
C1073       C  0.41165669  0.65687300  0.89204366    -0.02900
C1074       C  0.43226807  0.65146209  0.87509108    -0.07300
C1075       C  0.44781259  0.64158303  0.89591970     0.06200
C1076       C  0.44197973  0.63632109  0.93407613    -0.02400
Br1077     Br  0.46283206  0.62338327  0.96450496    -0.02100
H1078       H  0.41767452  0.63791522  0.98057877     0.10100
H1079       H  0.43724728  0.65639039  0.84599221     0.08100
Br1080     Br  0.39366432  0.67296192  0.86166577    -0.02500
C1081       C  0.44002792  0.77433898  0.13747730    -0.09100
C1082       C  0.44415063  0.80168628  0.12839281     0.07100
C1083       C  0.42395968  0.80334339  0.10467069    -0.02900
C1084       C  0.40128967  0.77814445  0.08913336    -0.07300
C1085       C  0.39901520  0.75116293  0.09518206     0.06200
C1086       C  0.41792663  0.74927032  0.12091377    -0.02400
Br1087     Br  0.41471618  0.71308927  0.13420023    -0.02100
H1088       H  0.45518785  0.77262827  0.15584656     0.10100
H1089       H  0.38669650  0.77992597  0.07009467     0.08100
Br1090     Br  0.42852033  0.83937156  0.08790356    -0.02500
C1091       C  0.33159784  0.55776142  0.13449130    -0.09100
C1092       C  0.35285724  0.55170286  0.12116313     0.07100
C1093       C  0.37054265  0.56779077  0.09155184    -0.02900
C1094       C  0.36603665  0.58877597  0.07496135    -0.07300
C1095       C  0.34363917  0.59357337  0.08680906     0.06200
C1096       C  0.32682731  0.57847556  0.11749637    -0.02400
Br1097     Br  0.29753364  0.58562167  0.13739039    -0.02100
H1098       H  0.31781309  0.54538612  0.15721833     0.10100
H1099       H  0.37921597  0.60046404  0.05142755     0.08100
Br1100     Br  0.39885809  0.55984279  0.07002499    -0.02500
C1101       C  0.45644034  0.93415119  0.81425958    -0.09100
C1102       C  0.44913839  0.94793607  0.78677910     0.07100
C1103       C  0.41964975  0.93882423  0.78077867    -0.02900
C1104       C  0.39839515  0.91515308  0.79977144    -0.07300
C1105       C  0.40548993  0.90078442  0.82670305     0.06200
C1106       C  0.43509598  0.91114515  0.83456589    -0.02400
Br1107     Br  0.44819529  0.89681415  0.87450885    -0.02100
H1108       H  0.47894497  0.94140279  0.82007948     0.10100
H1109       H  0.37600047  0.90811130  0.79355876     0.08100
Br1110     Br  0.40646121  0.95882490  0.74953642    -0.02500
C1111       C  0.01852171  0.57669608  0.78315005    -0.09100
C1112       C  0.49887226  0.54827764  0.79311579     0.07100
C1113       C  0.48042685  0.54378717  0.82359375    -0.02900
C1114       C  0.48126766  0.56743859  0.84215415    -0.07300
C1115       C  0.99962042  0.59580486  0.83041423     0.06200
C1116       C  0.01810365  0.60012406  0.79996234    -0.02400
Br1117     Br  0.04068968  0.63671210  0.77632228    -0.02100
H1118       H  0.03338344  0.58073621  0.76039159     0.10100
H1119       H  0.46700137  0.56353446  0.86559200     0.08100
Br1120     Br  0.45176220  0.50617805  0.83915581    -0.02500
C1121       C  0.08649606  0.51541582  0.83654244    -0.09100
C1122       C  0.09751618  0.99829082  0.82194804     0.07100
C1123       C  0.08322090  0.98019048  0.79113589    -0.02900
C1124       C  0.05858671  0.97937833  0.77607288    -0.07300
C1125       C  0.04857719  0.99781222  0.78910776     0.06200
C1126       C  0.06254656  0.51552399  0.82040690    -0.02400
Br1127     Br  0.05212432  0.54244086  0.84060046    -0.02100
H1128       H  0.09697142  0.52932092  0.86033117     0.10100
H1129       H  0.04803082  0.96520194  0.75256029     0.08100
Br1130     Br  0.09807220  0.95862211  0.76537850    -0.02500
C1131       C  0.41661408  0.92880020  0.65288079    -0.09100
C1132       C  0.40808369  0.90051887  0.66371449     0.07100
C1133       C  0.42362189  0.89637887  0.69257089    -0.02900
C1134       C  0.44635656  0.92017969  0.71036523    -0.07300
C1135       C  0.45323245  0.94846022  0.70170925     0.06200
C1136       C  0.43866198  0.95261544  0.67158576    -0.02400
Br1137     Br  0.44475406  0.98964813  0.65704602    -0.02100
H1138       H  0.40524593  0.93246307  0.63048103     0.10100
H1139       H  0.45774083  0.91648141  0.73269576     0.08100
Br1140     Br  0.41297111  0.85920674  0.71239857    -0.02500
C1141       C  0.01614136  0.56219834  0.68104283    -0.09100
C1142       C  0.49517638  0.54783693  0.70835243     0.07100
C1143       C  0.47394808  0.55595256  0.71426053    -0.02900
C1144       C  0.47583482  0.57978467  0.69607604    -0.07300
C1145       C  0.49769603  0.59519318  0.67022351     0.06200
C1146       C  0.01722245  0.58528339  0.66149140    -0.02400
Br1147     Br  0.04434318  0.60072730  0.62144084    -0.02100
H1148       H  0.03196715  0.55558919  0.67507701     0.10100
H1149       H  0.46007258  0.58640535  0.70240962     0.08100
Br1150     Br  0.44084985  0.53472450  0.74492850    -0.02500
C1151       C  0.04499440  0.48539626  0.67648860    -0.09100
C1152       C  0.05072007  0.50548945  0.70509064     0.07100
C1153       C  0.07943277  0.52740323  0.71128422    -0.02900
C1154       C  0.10199849  0.52662517  0.69236645    -0.07300
C1155       C  0.09650066  0.50525224  0.66539010     0.06200
C1156       C  0.06741341  0.48547671  0.65614562    -0.02400
Br1157     Br  0.05642028  0.45932838  0.61460739    -0.02100
H1158       H  0.02290935  0.46922068  0.67026780     0.10100
H1159       H  0.12398361  0.54269623  0.69914899     0.08100
Br1160     Br  0.08892952  0.05966292  0.74364177    -0.02500
C1161       C  0.99814347  0.99797657  0.78407885     0.45500
H1162       H  0.99766654  0.99658076  0.81482234    -0.03500
C1163       C  0.49917710  0.50050180  0.71176678     0.45500
H1164       H  0.50009843  0.50162504  0.68096811    -0.03500
C1165       C  0.97266229  0.47164740  0.76496964    -0.17200
C1166       C  0.99671181  0.02426385  0.76896111    -0.17000
C1167       C  0.52573933  0.50003320  0.76702737    -0.17400
C1168       C  0.97370636  0.47262826  0.72660782    -0.17300
C1169       C  0.49646773  0.02500504  0.73057297    -0.16900
C1170       C  0.52641403  0.50226370  0.72882706    -0.17200
O1171       O  0.81358998  0.10692271  0.05304437    -0.78500
C1172       C  0.76526018  0.15614841  0.05881105     0.82600
O1173       O  0.79208338  0.13472677  0.93002468    -0.79600
O1174       O  0.83135658  0.22458726  0.97999954    -0.81100
O1175       O  0.88790901  0.20995540  0.05759127    -0.80900
O1176       O  0.86038723  0.13890402  0.06037879    -0.79500
Zn1177     Zn  0.79786845  0.12902290  0.02400678     1.55700
O1178       O  0.85422204  0.22293558  0.06360269    -0.80900
Cd1179     Cd  0.86714871  0.17198260  0.02644376     1.59700
Cd1180     Cd  0.83173390  0.16504697  0.95170961     1.59600
O1181       O  0.89213950  0.16869689  0.98426042    -0.80900
O1182       O  0.82950218  0.16510970  0.00703895    -1.91400
Cd1183     Cd  0.82357476  0.19716758  0.02394623     1.59900
O1184       O  0.86298077  0.15497702  0.93482829    -0.80800
O1185       O  0.78218376  0.18084869  0.04519407    -0.79500
C1186       C  0.77137820  0.11277491  0.94525785     0.83100
C1187       C  0.83863430  0.11431798  0.06617249     0.82700
O1188       O  0.77070113  0.13547775  0.05687764    -0.78400
C1189       C  0.87910040  0.22637091  0.07137181     0.83500
O1190       O  0.77226345  0.10701805  0.97951986    -0.78500
C1191       C  0.88617834  0.15933502  0.95077380     0.83700
C1192       C  0.84109426  0.22635797  0.94715850     0.84000
O1193       O  0.84316086  0.20573209  0.93207687    -0.81000
C1194       C  0.88146432  0.37583597  0.84626676     0.03200
C1195       C  0.85677460  0.37725149  0.85786447    -0.13000
C1196       C  0.83367677  0.35359932  0.87498626     0.00700
C1197       C  0.83537749  0.32885777  0.88141460    -0.11500
C1198       C  0.85980629  0.32727475  0.87134087     0.03200
C1199       C  0.88243507  0.35026481  0.85266274    -0.10900
H1200       H  0.85563925  0.39675279  0.85414240     0.08800
H1201       H  0.81811661  0.31116939  0.89634171     0.06300
H1202       H  0.90078748  0.34829096  0.84385040     0.06100
O1203       O  0.64024635  0.36400106  0.04871798    -0.78500
C1204       C  0.72743603  0.38221229  0.05991903     0.82600
O1205       O  0.66195773  0.36726467  0.92235092    -0.79600
O1206       O  0.72460991  0.32750068  0.97422947    -0.81100
O1207       O  0.63212304  0.27763427  0.05040557    -0.80900
O1208       O  0.60556614  0.32039546  0.03130973    -0.79500
Zn1209     Zn  0.67362251  0.36988571  0.01612351     1.55700
O1210       O  0.67745634  0.28643414  0.04532621    -0.80900
Cd1211     Cd  0.62974144  0.30346054  0.01068151     1.59700
Cd1212     Cd  0.66969372  0.33474146  0.94059226     1.59600
O1213       O  0.60994160  0.27589508  0.96712014    -0.80900
O1214       O  0.66810357  0.33404836  0.99607001    -1.91400
Cd1215     Cd  0.69719340  0.32521793  0.01659250     1.59900
O1216       O  0.63874463  0.29516257  0.91825008    -0.80800
O1217       O  0.72394637  0.35724845  0.05326064    -0.79500
C1218       C  0.66457582  0.38932176  0.94000113     0.83100
C1219       C  0.61388912  0.34429904  0.04809771     0.82700
O1220       O  0.71054201  0.39036652  0.04634928    -0.78400
C1221       C  0.65184814  0.27168449  0.05796605     0.83500
O1222       O  0.67202959  0.39369709  0.97415900    -0.78500
C1223       C  0.61654962  0.27468632  0.93342867     0.83700
C1224       C  0.72832101  0.33676789  0.94090442     0.84000
O1225       O  0.71021866  0.34206092  0.92448875    -0.81000
C1226       C  0.61290442  0.12110586  0.15250023     0.03200
C1227       C  0.63844273  0.12027100  0.14379567    -0.13000
C1228       C  0.66158070  0.14360758  0.12602359     0.00700
C1229       C  0.66041174  0.16880180  0.12060824    -0.11500
C1230       C  0.63620724  0.17082614  0.13036683     0.03200
C1231       C  0.61206752  0.14666041  0.14486774    -0.10900
H1232       H  0.64030839  0.10154913  0.15009709     0.08800
H1233       H  0.67826850  0.18682430  0.10698895     0.06300
H1234       H  0.59269449  0.14791590  0.14987085     0.06100
C1235       C  0.62375745  0.49973772  0.83920093     0.03200
C1236       C  0.62362786  0.47427490  0.84977598    -0.13000
C1237       C  0.64793385  0.47559776  0.86682496     0.00700
C1238       C  0.67234004  0.50224464  0.87349662    -0.11500
C1239       C  0.67261453  0.02777227  0.86494285     0.03200
C1240       C  0.64833171  0.02661463  0.84776254    -0.10900
H1241       H  0.60429944  0.45355319  0.84611633     0.08800
H1242       H  0.69061288  0.50316554  0.88801792     0.06300
H1243       H  0.64843219  0.04648019  0.84162220     0.06100
C1244       C  0.50236175  0.37722765  0.15866758     0.03200
C1245       C  0.97504480  0.35235653  0.15494696    -0.13000
C1246       C  0.97241148  0.32748323  0.13731286     0.00700
C1247       C  0.49731028  0.32769896  0.12449898    -0.11500
C1248       C  0.52438355  0.35256516  0.12692964     0.03200
C1249       C  0.52677552  0.37729334  0.14401890    -0.10900
H1250       H  0.95602737  0.35256364  0.16509651     0.08800
H1251       H  0.49538325  0.30876812  0.11043316     0.06300
H1252       H  0.54741278  0.39700619  0.14463800     0.06100
C1253       C  0.49946469  0.12041985  0.85028614     0.03200
C1254       C  0.97339051  0.11918845  0.86136688    -0.13000
C1255       C  0.97391842  0.14277291  0.87993878     0.00700
C1256       C  0.50025344  0.16783760  0.88609031    -0.11500
C1257       C  0.52612192  0.16910342  0.87601339     0.03200
C1258       C  0.52574652  0.14516696  0.85939378    -0.10900
H1259       H  0.95286851  0.10001416  0.85591893     0.08800
H1260       H  0.50069520  0.18603128  0.90031356     0.06300
H1261       H  0.54606933  0.14589202  0.85370272     0.06100
C1262       C  0.87347387  0.49882030  0.16220318     0.03200
C1263       C  0.84788552  0.47278395  0.15444247    -0.13000
C1264       C  0.82463888  0.47290716  0.13625292     0.00700
C1265       C  0.82717350  0.49911888  0.12570574    -0.11500
C1266       C  0.85206097  0.02509920  0.13351038     0.03200
C1267       C  0.87545596  0.02501227  0.15123926    -0.10900
H1268       H  0.84611278  0.45242838  0.16225427     0.08800
H1269       H  0.80987816  0.49932957  0.11004378     0.06300
H1270       H  0.89516468  0.04513971  0.15585180     0.06100
O1271       O  0.86297362  0.13532133  0.43548597    -0.78500
C1272       C  0.88630467  0.22371855  0.43221343     0.82600
O1273       O  0.86630935  0.15734524  0.56522106    -0.79600
O1274       O  0.83211026  0.22223949  0.50951133    -0.81100
O1275       O  0.77494975  0.13085517  0.43474198    -0.80900
O1276       O  0.81709871  0.10153373  0.44402506    -0.79500
Zn1277     Zn  0.86904757  0.16729652  0.47072245     1.55700
O1278       O  0.78942522  0.17767999  0.43952267    -0.80900
Cd1279     Cd  0.80114588  0.12504470  0.47149950     1.59700
Cd1280     Cd  0.83367415  0.16442241  0.54440497     1.59600
O1281       O  0.77399020  0.10415872  0.51571149    -0.80900
O1282       O  0.83321544  0.16250953  0.48870835    -1.91400
Cd1283     Cd  0.82791751  0.19375089  0.46779186     1.59900
O1284       O  0.79349143  0.13357595  0.56479777    -0.80800
O1285       O  0.86059621  0.21924861  0.43223026    -0.79500
C1286       C  0.88774409  0.15856931  0.54771732     0.83100
C1287       C  0.84203889  0.10992210  0.43022028     0.82700
O1288       O  0.89313630  0.20646139  0.44749815    -0.78400
C1289       C  0.77201029  0.15250299  0.42721983     0.83500
O1290       O  0.89048778  0.16302758  0.51297825    -0.78500
C1291       C  0.77283137  0.11119695  0.54946043     0.83700
C1292       C  0.84003847  0.22513615  0.54343920     0.84000
O1293       O  0.84222185  0.20548169  0.56068286    -0.81000
C1294       C  0.88201430  0.37618602  0.64604654     0.03200
C1295       C  0.85669868  0.37811097  0.64134472    -0.13000
C1296       C  0.83209138  0.35537963  0.62471044     0.00700
C1297       C  0.83247645  0.33054300  0.61334494    -0.11500
C1298       C  0.85744910  0.32852033  0.61688430     0.03200
C1299       C  0.88241138  0.35152129  0.63247661    -0.10900
H1300       H  0.85615687  0.39725768  0.65025242     0.08800
H1301       H  0.81359286  0.31318506  0.59987686     0.06300
H1302       H  0.90207763  0.35029127  0.63360851     0.06100
O1303       O  0.60639437  0.31933637  0.46033554    -0.78500
C1304       C  0.65260093  0.26920293  0.44892533     0.82600
O1305       O  0.63613105  0.29180958  0.58068234    -0.79600
O1306       O  0.72529857  0.33361541  0.52732146    -0.81100
O1307       O  0.71115791  0.39147989  0.46759756    -0.80900
O1308       O  0.64037214  0.36531626  0.45376516    -0.79500
Zn1309     Zn  0.62726739  0.30172867  0.48866314     1.55700
O1310       O  0.71694445  0.35516508  0.44676000    -0.80900
Cd1311     Cd  0.67098941  0.36924751  0.49137277     1.59700
Cd1312     Cd  0.66621225  0.33198821  0.56240002     1.59600
O1313       O  0.66530893  0.39064328  0.53527943    -0.80900
O1314       O  0.66378642  0.33129668  0.50720329    -1.91400
Cd1315     Cd  0.69462859  0.32525466  0.48673919     1.59900
O1316       O  0.65640357  0.36223864  0.58434477    -0.80800
O1317       O  0.67753381  0.28468052  0.46328750    -0.79500
C1318       C  0.61300864  0.27267851  0.56503173     0.83100
C1319       C  0.61530033  0.34441878  0.44686273     0.82700
O1320       O  0.63240892  0.27519035  0.45291009    -0.78400
C1321       C  0.72444307  0.38174676  0.44795745     0.83500
O1322       O  0.60583150  0.27552764  0.53201597    -0.78500
C1323       C  0.65793814  0.38439123  0.56908611     0.83700
C1324       C  0.72789997  0.34136932  0.56140573     0.84000
O1325       O  0.70752341  0.34207905  0.57917462    -0.81000
C1326       C  0.62126759  0.00369407  0.64836101     0.03200
C1327       C  0.62044900  0.47699759  0.64459175    -0.13000
C1328       C  0.64363265  0.47540759  0.62873058     0.00700
C1329       C  0.66849594  0.00062965  0.61862540    -0.11500
C1330       C  0.67014882  0.02742819  0.62290538     0.03200
C1331       C  0.64636907  0.02893487  0.63718961    -0.10900
H1332       H  0.60177868  0.45738875  0.65365473     0.08800
H1333       H  0.68625200  0.99929521  0.60586744     0.06300
H1334       H  0.64737864  0.04966149  0.63928000     0.06100
C1335       C  0.99953947  0.12145459  0.65352631     0.03200
C1336       C  0.52621365  0.14717536  0.65138322    -0.13000
C1337       C  0.52765009  0.17189567  0.63628585     0.00700
C1338       C  0.00242760  0.17153295  0.62532719    -0.11500
C1339       C  0.97583707  0.14615164  0.62605895     0.03200
C1340       C  0.97438078  0.12108248  0.64030994    -0.10900
H1341       H  0.54588512  0.14793647  0.66071304     0.08800
H1342       H  0.00391120  0.19067188  0.61295118     0.06300
H1343       H  0.95398310  0.10116015  0.63989189     0.06100
C1344       C  0.00014148  0.37693264  0.34374215     0.03200
C1345       C  0.97486681  0.35203452  0.35540246    -0.13000
C1346       C  0.97656121  0.32907213  0.37168321     0.00700
C1347       C  0.00349568  0.33140878  0.37744418    -0.11500
C1348       C  0.52879390  0.35643962  0.36863087     0.03200
C1349       C  0.52721099  0.37897015  0.35098428    -0.10900
H1350       H  0.95407904  0.35083199  0.35302492     0.08800
H1351       H  0.00484629  0.31406219  0.39115093     0.06300
H1352       H  0.54700346  0.39812770  0.34363401     0.06100
C1353       C  0.61922794  0.12140399  0.34415895     0.03200
C1354       C  0.64415671  0.11992219  0.35305743    -0.13000
C1355       C  0.66757428  0.14292217  0.37103046     0.00700
C1356       C  0.66554828  0.16693316  0.38212543    -0.11500
C1357       C  0.64031768  0.16810651  0.37609512     0.03200
C1358       C  0.61757476  0.14595494  0.35585115    -0.10900
H1359       H  0.64533471  0.10070837  0.34659520     0.08800
H1360       H  0.68326141  0.18429470  0.39735079     0.06300
H1361       H  0.59845312  0.14754994  0.35037910     0.06100
C1362       C  0.87158060  0.98826835  0.34426801     0.03200
C1363       C  0.84716989  0.46389711  0.35796521    -0.13000
C1364       C  0.82464587  0.46662679  0.37361865     0.00700
C1365       C  0.82572842  0.99323759  0.37390245    -0.11500
C1366       C  0.84996358  0.01778831  0.36102726     0.03200
C1367       C  0.87294798  0.01532074  0.34594551    -0.10900
H1368       H  0.84637036  0.44322191  0.35822136     0.08800
H1369       H  0.80843805  0.99522239  0.38699994     0.06300
H1370       H  0.89205618  0.03442358  0.33649372     0.06100
C1371       C  0.99625279  0.49809970  0.21497012     0.45500
H1372       H  0.99524764  0.49990644  0.18478200    -0.03500
C1373       C  0.99777931  0.49720759  0.28722418     0.45500
H1374       H  0.99867346  0.49675557  0.31801992    -0.03500
C1375       C  0.51909176  0.02665732  0.23215908    -0.17200
C1376       C  0.96768742  0.49190148  0.23358978    -0.17000
C1377       C  0.00376858  0.47525567  0.22967741    -0.17400
C1378       C  0.52020748  0.02641266  0.27037523    -0.17300
C1379       C  0.96813372  0.49022128  0.27176809    -0.16900
C1380       C  0.00321035  0.47441353  0.26844529    -0.17200
C1381       C  0.94688603  0.00004701  0.32843266    -0.09100
C1382       C  0.94281018  0.48372345  0.29607698     0.07100
C1383       C  0.91425107  0.46329511  0.28606652    -0.02900
C1384       C  0.89115990  0.46493545  0.30199312    -0.07300
C1385       C  0.89604738  0.48549375  0.32979047     0.06200
C1386       C  0.92400973  0.00176886  0.34478224    -0.02400
Br1387     Br  0.93203582  0.02577476  0.38821795    -0.02100
H1388       H  0.96778480  0.01155678  0.34098733     0.10100
H1389       H  0.86939891  0.45016047  0.29265275     0.08100
Br1390     Br  0.90553799  0.43036544  0.25568314    -0.02500
C1391       C  0.56614584  0.08890186  0.33702484    -0.09100
C1392       C  0.59416735  0.09644493  0.32560380     0.07100
C1393       C  0.59732612  0.07996343  0.29675107    -0.02900
C1394       C  0.57300277  0.05602878  0.28184067    -0.07300
C1395       C  0.54497732  0.04941682  0.29202864     0.06200
C1396       C  0.54184529  0.06669887  0.31954497    -0.02400
Br1397     Br  0.50620670  0.06522711  0.33089348    -0.02100
H1398       H  0.56290983  0.10105641  0.35895715     0.10100
H1399       H  0.57596886  0.04341463  0.26025969     0.08100
Br1400     Br  0.63329356  0.09062977  0.27241571    -0.02500
C1401       C  0.51892795  0.42998072  0.33742246    -0.09100
C1402       C  0.99875848  0.40163833  0.32636746     0.07100
C1403       C  0.97869730  0.39786152  0.29799675    -0.02900
C1404       C  0.97927730  0.42182717  0.28166223    -0.07300
C1405       C  0.00073087  0.44992094  0.29096434     0.06200
C1406       C  0.52032939  0.45390191  0.31971315    -0.02400
Br1407     Br  0.55117210  0.49125390  0.33352252    -0.02100
H1408       H  0.53429386  0.43364651  0.35934310     0.10100
H1409       H  0.96410298  0.41850749  0.25959244     0.08100
Br1410     Br  0.95239923  0.36121886  0.27616939    -0.02500
C1411       C  0.56346656  0.19421350  0.58718430    -0.09100
C1412       C  0.55492022  0.19617519  0.62342023     0.07100
C1413       C  0.56772214  0.22302520  0.64179272    -0.02900
C1414       C  0.58762820  0.24776921  0.62295057    -0.07300
C1415       C  0.59427714  0.24609048  0.58549077     0.06200
C1416       C  0.58281623  0.21883935  0.56808185    -0.02400
Br1417     Br  0.59246893  0.21376143  0.51822641    -0.02100
H1418       H  0.55347204  0.17360359  0.57276363     0.10100
H1419       H  0.59676618  0.26849214  0.63694905     0.08100
Br1420     Br  0.55715268  0.22681498  0.69161134    -0.02500
C1421       C  0.63830622  0.21378927  0.37317153    -0.09100
C1422       C  0.63782960  0.19162609  0.39436511     0.07100
C1423       C  0.63980885  0.19440185  0.43342909    -0.02900
C1424       C  0.64472857  0.21995892  0.45045537    -0.07300
C1425       C  0.64638416  0.24254535  0.42934072     0.06200
C1426       C  0.64221245  0.23912622  0.39055264    -0.02400
Br1427     Br  0.64379529  0.26923592  0.36032883    -0.02100
H1428       H  0.63694501  0.21192224  0.34314736     0.10100
H1429       H  0.64742378  0.22227122  0.48035484     0.08100
Br1430     Br  0.63630155  0.16392431  0.46475901    -0.02500
C1431       C  0.65854918  0.43858489  0.63817655    -0.09100
C1432       C  0.64152698  0.44759124  0.61891665     0.07100
C1433       C  0.62702820  0.43288327  0.58622500    -0.02900
C1434       C  0.63128703  0.41093604  0.57196386    -0.07300
C1435       C  0.64984383  0.40321189  0.58974062     0.06200
C1436       C  0.66256272  0.41627377  0.62400582    -0.02400
Br1437     Br  0.68802829  0.40677251  0.65014774    -0.02100
H1438       H  0.67000870  0.45001090  0.66313772     0.10100
H1439       H  0.62120142  0.40082786  0.54572122     0.08100
Br1440     Br  0.60403021  0.44411318  0.55738499    -0.02500
C1441       C  0.77133309  0.42580067  0.44828796    -0.09100
C1442       C  0.75042303  0.40211930  0.42820092     0.07100
C1443       C  0.75541830  0.39802919  0.39071547    -0.02900
C1444       C  0.78061093  0.41860257  0.37340121    -0.07300
C1445       C  0.80099027  0.44280143  0.39334063     0.06200
C1446       C  0.79675636  0.44576708  0.43142816    -0.02400
Br1447     Br  0.82523193  0.47650307  0.46174782    -0.00100
H1448       H  0.76804272  0.42855196  0.47749906     0.10100
H1449       H  0.78379655  0.41630848  0.34403567     0.08100
Br1450     Br  0.72769820  0.36610455  0.36140658    -0.02500
C1451       C  0.56418489  0.33911317  0.37009113    -0.09100
C1452       C  0.55604544  0.35906860  0.38267779     0.07100
C1453       C  0.56944460  0.37580866  0.41471179    -0.02900
C1454       C  0.58952417  0.37141962  0.43451479    -0.07300
C1455       C  0.59603270  0.35002261  0.42334698     0.06200
C1456       C  0.58403414  0.33453296  0.39016901    -0.02400
Br1457     Br  0.59413416  0.30698632  0.37133133    -0.02100
H1458       H  0.55383895  0.32594086  0.34579632     0.10100
H1459       H  0.59892415  0.38367568  0.45976150     0.08100
Br1460     Br  0.55849163  0.40234872  0.43514156    -0.02500
C1461       C  0.80761070  0.37081199  0.58007546    -0.09100
C1462       C  0.80682855  0.35804310  0.61418050     0.07100
C1463       C  0.78038835  0.34256153  0.63282069    -0.02900
C1464       C  0.75494980  0.33879656  0.61629022    -0.07300
C1465       C  0.75540170  0.34955315  0.58067495     0.06200
C1466       C  0.78221964  0.36657870  0.56311305    -0.02400
Br1467     Br  0.78562302  0.38417448  0.51568843    -0.02100
H1468       H  0.82787755  0.38255411  0.56541068     0.10100
H1469       H  0.73457829  0.32591729  0.63028340     0.08100
Br1470     Br  0.77794185  0.32446755  0.67948640    -0.02500
C1471       C  0.90452272  0.14318474  0.60383786    -0.09100
C1472       C  0.90986788  0.15429876  0.56748316     0.07100
C1473       C  0.93638905  0.16073814  0.55046038    -0.02900
C1474       C  0.95625465  0.15590309  0.56954033    -0.07300
C1475       C  0.95138156  0.14584782  0.60610140     0.06200
C1476       C  0.92508944  0.13912376  0.62324632    -0.02400
Br1477     Br  0.91712048  0.12620826  0.67365469    -0.02100
H1478       H  0.88444371  0.13799957  0.61752050     0.10100
H1479       H  0.97648449  0.16122426  0.55610581     0.08100
Br1480     Br  0.94896962  0.17829002  0.50249181    -0.02500
C1481       C  0.87199473  0.06206844  0.39926858    -0.09100
C1482       C  0.85254600  0.04583151  0.37087699     0.07100
C1483       C  0.83124212  0.05262486  0.35988162    -0.02900
C1484       C  0.82864460  0.07427477  0.37868885    -0.07300
C1485       C  0.84711373  0.08940571  0.40843035     0.06200
C1486       C  0.86926973  0.08353526  0.41829333    -0.02400
Br1487     Br  0.89357343  0.10107964  0.46097463    -0.02100
H1488       H  0.88773902  0.05634177  0.40885918     0.10100
H1489       H  0.81166751  0.07874797  0.37078571     0.08100
Br1490     Br  0.80419834  0.03168015  0.32081279    -0.02500
C1491       C  0.74805882  0.08409325  0.60689504    -0.09100
C1492       C  0.74625627  0.09292673  0.57081543     0.07100
C1493       C  0.71872066  0.08327253  0.55491533    -0.02900
C1494       C  0.69391316  0.06340447  0.57356175    -0.07300
C1495       C  0.69586600  0.05300384  0.60833901     0.06200
C1496       C  0.72309734  0.06413160  0.62558569    -0.02400
Br1497     Br  0.72699872  0.05203770  0.67422688    -0.02100
H1498       H  0.76895559  0.09178816  0.61994000     0.10100
H1499       H  0.67304292  0.05516500  0.56018537     0.08100
Br1500     Br  0.71351544  0.09711161  0.50830484    -0.02500
C1501       C  0.72005860  0.12286176  0.41336926    -0.09100
C1502       C  0.74636420  0.14777812  0.40612625     0.07100
C1503       C  0.74670814  0.16886430  0.38262589    -0.02900
C1504       C  0.72073540  0.16577168  0.36931411    -0.07300
C1505       C  0.69422439  0.14222247  0.37974445     0.06200
C1506       C  0.69399975  0.12035469  0.40152844    -0.02400
Br1507     Br  0.65916778  0.08882404  0.42064552    -0.02100
H1508       H  0.71956959  0.10624254  0.43054105     0.10100
H1509       H  0.72114171  0.18241875  0.35206037     0.08100
Br1510     Br  0.78181042  0.20213337  0.36760492    -0.02500
C1511       C  0.90726082  0.25733290  0.37918124    -0.09100
C1512       C  0.90891317  0.25069689  0.41643263     0.07100
C1513       C  0.93126135  0.27096759  0.43926878    -0.02900
C1514       C  0.95187322  0.29713127  0.42451331    -0.07300
C1515       C  0.95114754  0.30344026  0.38682421     0.06200
C1516       C  0.92849016  0.28330358  0.36405627    -0.02400
Br1517     Br  0.92685241  0.28898789  0.31181240    -0.02100
H1518       H  0.88988848  0.24189472  0.36156096     0.10100
H1519       H  0.96917313  0.31240662  0.44237011     0.08100
Br1520     Br  0.93417261  0.26431512  0.49110066    -0.02500
C1521       C  0.83932644  0.25144848  0.60060759    -0.09100
C1522       C  0.84711466  0.25229926  0.56312458     0.07100
C1523       C  0.86113022  0.27918118  0.54495253    -0.02900
C1524       C  0.86625949  0.30419166  0.56403121    -0.07300
C1525       C  0.85730285  0.30301516  0.60084313     0.06200
C1526       C  0.84384817  0.27647153  0.61925908    -0.02400
Br1527     Br  0.82990239  0.27332623  0.66912720    -0.02100
H1528       H  0.82855189  0.23108377  0.61495877     0.10100
H1529       H  0.87617297  0.32452907  0.54955357     0.08100
Br1530     Br  0.87394668  0.28356015  0.49424729    -0.02500
C1531       C  0.90683856  0.47874054  0.16620723    -0.09100
C1532       C  0.89849513  0.49829493  0.17977693     0.07100
C1533       C  0.91367726  0.51616734  0.21036366    -0.02900
C1534       C  0.93703700  0.51477404  0.22577763    -0.07300
C1535       C  0.94468216  0.49446893  0.21309530     0.06200
C1536       C  0.92922242  0.47630499  0.18293054    -0.02400
Br1537     Br  0.93451720  0.44507429  0.16648132    -0.02100
H1538       H  0.89528314  0.46460022  0.14305314     0.10100
H1539       H  0.94849062  0.02876255  0.24911370     0.08100
Br1540     Br  0.90166598  0.04041001  0.23530490    -0.02500
C1541       C  0.99613913  0.42023252  0.15481272    -0.09100
C1542       C  0.50551740  0.40413196  0.17503733     0.07100
C1543       C  0.02161660  0.41623758  0.20769730    -0.02900
C1544       C  0.02480780  0.44214995  0.22165316    -0.07300
C1545       C  0.01021366  0.45539798  0.20557784     0.06200
C1546       C  0.00012136  0.44664022  0.16850865    -0.02400
Br1547     Br  0.00150141  0.47222438  0.13040267    -0.02100
H1548       H  0.48751725  0.41315023  0.12690412     0.10100
H1549       H  0.03772134  0.45111446  0.24663071     0.08100
Br1550     Br  0.53816728  0.39743353  0.23550261    -0.02500
C1551       C  0.57068117  0.10157921  0.19608122    -0.09100
C1552       C  0.58741674  0.09608219  0.17034281     0.07100
C1553       C  0.57864472  0.06685417  0.16190957    -0.02900
C1554       C  0.55630502  0.04470801  0.18208634    -0.07300
C1555       C  0.54062732  0.05059875  0.20868410     0.06200
C1556       C  0.54673327  0.07922051  0.21345147    -0.02400
Br1557     Br  0.52131698  0.08875404  0.23976289    -0.02100
H1558       H  0.57584965  0.12341088  0.20266605     0.10100
H1559       H  0.55107113  0.02265624  0.17681556     0.08100
Br1560     Br  0.59347956  0.05489586  0.12087097    -0.02500
C1561       C  0.59132926  0.22187052  0.93049555    -0.09100
C1562       C  0.59802485  0.24779267  0.91295753     0.07100
C1563       C  0.58380394  0.24706061  0.87968412    -0.02900
C1564       C  0.56136341  0.22073212  0.86640287    -0.07300
C1565       C  0.55340876  0.19511255  0.88559122     0.06200
C1566       C  0.56925060  0.19563017  0.91705048    -0.02400
Br1567     Br  0.55962436  0.16153817  0.94476990    -0.02100
H1568       H  0.60245729  0.22221221  0.95575574     0.10100
H1569       H  0.54919930  0.22040174  0.84216845     0.08100
Br1570     Br  0.59216162  0.28145853  0.85367305    -0.02500
C1571       C  0.66394974  0.24888968  0.10933332    -0.09100
C1572       C  0.64457865  0.24658155  0.08144620     0.07100
C1573       C  0.61919221  0.21989359  0.07546072    -0.02900
C1574       C  0.61520447  0.19553820  0.09458944    -0.07300
C1575       C  0.63587999  0.19742092  0.12019380     0.06200
C1576       C  0.65945746  0.22471880  0.12922139    -0.02400
Br1577     Br  0.68667170  0.22986496  0.16762192    -0.02100
H1578       H  0.68292244  0.26945909  0.11519247     0.10100
H1579       H  0.59701625  0.17473948  0.08737171     0.08100
Br1580     Br  0.59074766  0.21442480  0.03871837    -0.02500
C1581       C  0.64521932  0.44798525  0.92234444    -0.09100
C1582       C  0.64728319  0.45022740  0.88363301     0.07100
C1583       C  0.65351254  0.43145317  0.86314373    -0.02900
C1584       C  0.65870076  0.41146481  0.88177638    -0.07300
C1585       C  0.65797596  0.41002322  0.92092809     0.06200
C1586       C  0.65023042  0.42814180  0.94111639    -0.02400
Br1587     Br  0.64520371  0.42707401  0.99420445    -0.02100
H1588       H  0.64047034  0.46249208  0.93823058     0.10100
H1589       H  0.66407016  0.39756095  0.86559980     0.08100
Br1590     Br  0.65651737  0.43351551  0.81001199    -0.02500
C1591       C  0.59749666  0.36019881  0.10361580    -0.09100
C1592       C  0.59223593  0.34905676  0.06718072     0.07100
C1593       C  0.56562337  0.34122782  0.05001033    -0.02900
C1594       C  0.54443970  0.34358370  0.06975125    -0.07300
C1595       C  0.54892150  0.35322339  0.10687935     0.06200
C1596       C  0.57596638  0.36206406  0.12373903    -0.02400
Br1597     Br  0.58395940  0.37442191  0.17474954    -0.02100
H1598       H  0.61792942  0.36622730  0.11702492     0.10100
H1599       H  0.52407311  0.33746590  0.05607529     0.08100
Br1600     Br  0.55714200  0.32786978  0.99932603    -0.02500
C1601       C  0.74774132  0.42077888  0.10811633    -0.09100
C1602       C  0.75178452  0.40240558  0.08378159     0.07100
C1603       C  0.77932514  0.40467552  0.08170844    -0.02900
C1604       C  0.80252165  0.42650480  0.10148451    -0.07300
C1605       C  0.79880521  0.44605822  0.12383916     0.06200
C1606       C  0.77080373  0.44214264  0.12850866    -0.02400
Br1607     Br  0.76290020  0.46548187  0.16224690    -0.02100
H1608       H  0.72658075  0.41872766  0.11098075     0.10100
H1609       H  0.82390153  0.42931150  0.09751132     0.08100
Br1610     Br  0.78764257  0.38078813  0.04968447    -0.02500
C1611       C  0.78292716  0.34264517  0.86806735    -0.09100
C1612       C  0.80826007  0.35446137  0.88954974     0.07100
C1613       C  0.80713837  0.36088505  0.92731157    -0.02900
C1614       C  0.78096513  0.35527688  0.94304742    -0.07300
C1615       C  0.75541070  0.34297910  0.92194668     0.06200
C1616       C  0.75656710  0.33684297  0.88391191    -0.02400
Br1617     Br  0.72254221  0.31753975  0.85352638    -0.02100
H1618       H  0.78338652  0.33646343  0.83935672     0.10100
H1619       H  0.78049658  0.36012263  0.97225734     0.08100
Br1620     Br  0.84040854  0.37531431  0.95913286    -0.02500
C1621       C  0.74886003  0.08574954  0.88639668    -0.09100
C1622       C  0.74548396  0.09372391  0.92263037     0.07100
C1623       C  0.71730059  0.08322577  0.93658279    -0.02900
C1624       C  0.69339711  0.06416143  0.91515378    -0.07300
C1625       C  0.69690499  0.05464986  0.88010001     0.06200
C1626       C  0.72489964  0.06594930  0.86547185    -0.02400
Br1627     Br  0.73136315  0.05325567  0.81817528    -0.02100
H1628       H  0.77027957  0.09377766  0.87506883     0.10100
H1629       H  0.67202275  0.05513679  0.92701877     0.08100
Br1630     Br  0.70991283  0.09363908  0.98490369    -0.02500
C1631       C  0.69210150  0.14989578  0.07132648    -0.09100
C1632       C  0.68613556  0.14204764  0.10887607     0.07100
C1633       C  0.70585408  0.13728201  0.12947789    -0.02900
C1634       C  0.73127282  0.14111795  0.11253076    -0.07300
C1635       C  0.73788533  0.15083025  0.07572219     0.06200
C1636       C  0.71786486  0.15493579  0.05501641    -0.02400
Br1637     Br  0.72461389  0.16766867  0.00436391    -0.02100
H1638       H  0.67711465  0.15349601  0.05498785     0.10100
H1639       H  0.74652205  0.13777557  0.12862657     0.08100
Br1640     Br  0.70050188  0.12829837  0.18137250    -0.02500
C1641       C  0.86783187  0.30483445  0.92535560    -0.09100
C1642       C  0.86264415  0.30349892  0.88710641     0.07100
C1643       C  0.85345451  0.27740935  0.86775757    -0.02900
C1644       C  0.84779153  0.25258371  0.88738626    -0.07300
C1645       C  0.85053150  0.25337671  0.92639779     0.06200
C1646       C  0.86175679  0.28022360  0.94510774    -0.02400
Br1647     Br  0.86892963  0.28533463  0.99763822    -0.02100
H1648       H  0.87479203  0.32490938  0.94040666     0.10100
H1649       H  0.83973287  0.23236343  0.87236419     0.08100
Br1650     Br  0.84636475  0.27452039  0.81524319    -0.02500
C1651       C  0.92150940  0.14173728  0.95108266    -0.09100
C1652       C  0.90648832  0.15253863  0.93067685     0.07100
C1653       C  0.91165588  0.15687210  0.89204441    -0.02900
C1654       C  0.93226702  0.15146047  0.87509244    -0.07300
C1655       C  0.94781118  0.14158136  0.89592180     0.06200
C1656       C  0.94197804  0.13631992  0.93407825    -0.02400
Br1657     Br  0.96282973  0.12338193  0.96450806    -0.02100
H1658       H  0.91767292  0.13791512  0.98058051     0.10100
H1659       H  0.93724639  0.15638834  0.84599361     0.08100
Br1660     Br  0.89366410  0.17296106  0.86166550    -0.02500
C1661       C  0.94003021  0.27434056  0.13747638    -0.09100
C1662       C  0.94415287  0.30168784  0.12839242     0.07100
C1663       C  0.92396190  0.30334512  0.10467048    -0.02900
C1664       C  0.90129200  0.27814629  0.08913307    -0.07300
C1665       C  0.89901734  0.25116475  0.09518166     0.06200
C1666       C  0.91792894  0.24927200  0.12091300    -0.02400
Br1667     Br  0.91471869  0.21309093  0.13419885    -0.02100
H1668       H  0.95519061  0.27262974  0.15584581     0.10100
H1669       H  0.88669859  0.27992796  0.07009386     0.08100
Br1670     Br  0.92852239  0.33937342  0.08790417    -0.02500
C1671       C  0.83159705  0.05776250  0.13449234    -0.09100
C1672       C  0.85285719  0.05170466  0.12116496     0.07100
C1673       C  0.87054367  0.06779371  0.09155506    -0.02900
C1674       C  0.86603776  0.08877901  0.07496480    -0.07300
C1675       C  0.84363950  0.09357557  0.08681127     0.06200
C1676       C  0.82682676  0.07847687  0.11749754    -0.02400
Br1677     Br  0.79753215  0.08562203  0.13739048    -0.02100
H1678       H  0.81781175  0.04538663  0.15721824     0.10100
H1679       H  0.87921796  0.10046794  0.05143167     0.08100
Br1680     Br  0.89886055  0.05984724  0.07002960    -0.02500
C1681       C  0.95643990  0.43415160  0.81425887    -0.09100
C1682       C  0.94913807  0.44793622  0.78677798     0.07100
C1683       C  0.91964944  0.43882466  0.78077781    -0.02900
C1684       C  0.89839497  0.41515405  0.79977125    -0.07300
C1685       C  0.90548957  0.40078563  0.82670322     0.06200
C1686       C  0.93509563  0.41114615  0.83456588    -0.02400
Br1687     Br  0.94819492  0.39681562  0.87450942    -0.02100
H1688       H  0.97894493  0.44140317  0.82007873     0.10100
H1689       H  0.87599967  0.40811221  0.79355855     0.08100
Br1690     Br  0.90646094  0.45882503  0.74953496    -0.02500
C1691       C  0.51852092  0.07669634  0.78315227    -0.09100
C1692       C  0.99887191  0.04827720  0.79311592     0.07100
C1693       C  0.98042617  0.04378618  0.82359370    -0.02900
C1694       C  0.98126666  0.06743726  0.84215455    -0.07300
C1695       C  0.49961944  0.09580457  0.83041688     0.06200
C1696       C  0.51810278  0.10012413  0.79996498    -0.02400
Br1697     Br  0.54068887  0.13671253  0.77632579    -0.02100
H1698       H  0.53338301  0.08073682  0.76039374     0.10100
H1699       H  0.96700006  0.06353266  0.86559260     0.08100
Br1700     Br  0.95176158  0.00617679  0.83915486    -0.02500
C1701       C  0.58649630  0.01541678  0.83654469    -0.09100
C1702       C  0.59751511  0.49829000  0.82194737     0.07100
C1703       C  0.58321994  0.48018993  0.79113500    -0.02900
C1704       C  0.55858584  0.47937796  0.77607203    -0.07300
C1705       C  0.54857636  0.49781183  0.78910717     0.06200
C1706       C  0.56254667  0.01552476  0.82040917    -0.02400
Br1707     Br  0.55212407  0.04244135  0.84060276    -0.02100
H1708       H  0.59697153  0.02932180  0.86033339     0.10100
H1709       H  0.54802999  0.46520175  0.75255927     0.08100
Br1710     Br  0.59807135  0.45862178  0.76537733    -0.02500
C1711       C  0.91661306  0.42879960  0.65287955    -0.09100
C1712       C  0.90808206  0.40051826  0.66371366     0.07100
C1713       C  0.92361979  0.39637818  0.69257061    -0.02900
C1714       C  0.94635483  0.42017893  0.71036458    -0.07300
C1715       C  0.95323144  0.44845958  0.70170794     0.06200
C1716       C  0.93866116  0.45261483  0.67158421    -0.02400
Br1717     Br  0.94475386  0.48964762  0.65704386    -0.02100
H1718       H  0.90524499  0.43246260  0.63047915     0.10100
H1719       H  0.95773884  0.41648053  0.73269541     0.08100
Br1720     Br  0.91296773  0.35920610  0.71239953    -0.02500
C1721       C  0.51614260  0.06219832  0.68104447    -0.09100
C1722       C  0.99517737  0.04783679  0.70835225     0.07100
C1723       C  0.97394887  0.05595228  0.71425929    -0.02900
C1724       C  0.97583564  0.07978405  0.69607389    -0.07300
C1725       C  0.99769706  0.09519230  0.67022148     0.06200
C1726       C  0.51722392  0.08528285  0.66149166    -0.02400
Br1727     Br  0.54434507  0.10072575  0.62144138    -0.02100
H1728       H  0.53196851  0.05558898  0.67507970     0.10100
H1729       H  0.96007318  0.08640468  0.70240668     0.08100
Br1730     Br  0.94085032  0.03472436  0.74492682    -0.02500
C1731       C  0.54499432  0.98539791  0.67648946    -0.09100
C1732       C  0.55072043  0.00549034  0.70509256     0.07100
C1733       C  0.57943334  0.02740366  0.71128626    -0.02900
C1734       C  0.60199873  0.02662555  0.69236760    -0.07300
C1735       C  0.59650021  0.00525313  0.66539016     0.06200
C1736       C  0.56741283  0.98547842  0.65614545    -0.02400
Br1737     Br  0.55641908  0.95933169  0.61460551    -0.02100
H1738       H  0.52290879  0.96922257  0.67026832     0.10100
H1739       H  0.62398387  0.04269597  0.69915020     0.08100
Br1740     Br  0.58892859  0.55966291  0.74364179    -0.02500
C1741       C  0.99814323  0.49797656  0.78407817     0.45500
H1742       H  0.99766637  0.49658078  0.81482162    -0.03500
C1743       C  0.49917781  0.00050226  0.71176831     0.45500
H1744       H  0.50009918  0.00162552  0.68096958    -0.03500
C1745       C  0.97266275  0.97164730  0.76497008    -0.17200
C1746       C  0.99671182  0.52426397  0.76896049    -0.17000
C1747       C  0.52573990  0.00003382  0.76702912    -0.17400
C1748       C  0.97370707  0.97262833  0.72660829    -0.17300
C1749       C  0.49646718  0.52500468  0.73057164    -0.16900
C1750       C  0.52641476  0.00226438  0.72882878    -0.17200
O1751       O  0.81359018  0.60692123  0.05304085    -0.78500
C1752       C  0.76525932  0.65614583  0.05880711     0.82600
O1753       O  0.79208323  0.63472513  0.93002151    -0.79600
O1754       O  0.83135573  0.72458537  0.97999551    -0.81100
O1755       O  0.88790789  0.70995452  0.05758912    -0.80900
O1756       O  0.86038720  0.63890317  0.06037599    -0.79500
Zn1757     Zn  0.79786835  0.62902119  0.02400346     1.55700
O1758       O  0.85422057  0.72293428  0.06359954    -0.80900
Cd1759     Cd  0.86714843  0.67198176  0.02644118     1.59700
Cd1760     Cd  0.83173363  0.66504521  0.95170675     1.59600
O1761       O  0.89213979  0.66869661  0.98425802    -0.80900
O1762       O  0.82950182  0.66510825  0.00703597    -1.91400
Cd1763     Cd  0.82357379  0.69716587  0.02394260     1.59900
O1764       O  0.86298072  0.65497553  0.93482613    -0.80800
O1765       O  0.78218247  0.68084609  0.04518972    -0.79500
C1766       C  0.77137802  0.61277329  0.94525460     0.83100
C1767       C  0.83863451  0.61431689  0.06616923     0.82700
O1768       O  0.77070089  0.63547557  0.05687438    -0.78400
C1769       C  0.87909894  0.72636986  0.07136931     0.83500
O1770       O  0.77226332  0.60701633  0.97951656    -0.78500
C1771       C  0.88617861  0.65933438  0.95077153     0.83700
C1772       C  0.84109373  0.72635594  0.94715466     0.84000
O1773       O  0.84316058  0.70573009  0.93207347    -0.81000
C1774       C  0.88146440  0.87583478  0.84626539     0.03200
C1775       C  0.85677465  0.87725007  0.85786331    -0.13000
C1776       C  0.83367678  0.85359781  0.87498481     0.00700
C1777       C  0.83537739  0.82885606  0.88141241    -0.11500
C1778       C  0.85980619  0.82727314  0.87133822     0.03200
C1779       C  0.88243513  0.85026351  0.85266071    -0.10900
H1780       H  0.85563932  0.89675174  0.85414164     0.08800
H1781       H  0.81811663  0.81116764  0.89633913     0.06300
H1782       H  0.90078753  0.84828982  0.84384829     0.06100
O1783       O  0.64024472  0.86399865  0.04871864    -0.78500
C1784       C  0.72743509  0.88221139  0.05991913     0.82600
O1785       O  0.66195878  0.86726553  0.92235096    -0.79600
O1786       O  0.72461014  0.82750048  0.97422864    -0.81100
O1787       O  0.63212283  0.77763217  0.05040249    -0.80900
O1788       O  0.60556513  0.82039300  0.03130977    -0.79500
Zn1789     Zn  0.67362126  0.86988430  0.01612407     1.55700
O1790       O  0.67745669  0.78643350  0.04532463    -0.80900
Cd1791     Cd  0.62974106  0.80345925  0.01067988     1.59700
Cd1792     Cd  0.66969410  0.83474165  0.94059134     1.59600
O1793       O  0.60994143  0.77589493  0.96711746    -0.80900
O1794       O  0.66810323  0.83404761  0.99606918    -1.91400
Cd1795     Cd  0.69719339  0.82521748  0.01659152     1.59900
O1796       O  0.63874472  0.79516334  0.91824783    -0.80800
O1797       O  0.72394608  0.85724788  0.05325999    -0.79500
C1798       C  0.66457587  0.88932189  0.94000207     0.83100
C1799       C  0.61388765  0.84429626  0.04809836     0.82700
O1800       O  0.71054056  0.89036520  0.04635004    -0.78400
C1801       C  0.65184828  0.77168303  0.05796346     0.83500
O1802       O  0.67202837  0.89369617  0.97416038    -0.78500
C1803       C  0.61654955  0.77468686  0.93342585     0.83700
C1804       C  0.72832131  0.83676758  0.94090353     0.84000
O1805       O  0.71021905  0.84206074  0.92448785    -0.81000
C1806       C  0.61290420  0.62110421  0.15249693     0.03200
C1807       C  0.63844220  0.62026891  0.14379213    -0.13000
C1808       C  0.66158039  0.64360528  0.12602025     0.00700
C1809       C  0.66041198  0.66879986  0.12060523    -0.11500
C1810       C  0.63620758  0.67082448  0.13036367     0.03200
C1811       C  0.61206781  0.64665893  0.14486438    -0.10900
H1812       H  0.64030750  0.60154651  0.15009340     0.08800
H1813       H  0.67826888  0.68682223  0.10698615     0.06300
H1814       H  0.59269441  0.64791473  0.14986757     0.06100
C1815       C  0.62375789  0.99973874  0.83920386     0.03200
C1816       C  0.62362839  0.97427598  0.84977870    -0.13000
C1817       C  0.64793426  0.97559874  0.86682778     0.00700
C1818       C  0.67234033  0.00224559  0.87349991    -0.11500
C1819       C  0.67261421  0.52777130  0.86493939     0.03200
C1820       C  0.64833135  0.52661357  0.84775923    -0.10900
H1821       H  0.60429982  0.95355398  0.84611864     0.08800
H1822       H  0.69061319  0.00316643  0.88802127     0.06300
H1823       H  0.64843183  0.54647931  0.84161876     0.06100
C1824       C  0.50236102  0.87722692  0.15866694     0.03200
C1825       C  0.97504330  0.85235609  0.15494413    -0.13000
C1826       C  0.97240975  0.82748271  0.13730999     0.00700
C1827       C  0.49730894  0.82769698  0.12450118    -0.11500
C1828       C  0.52438235  0.85256311  0.12693097     0.03200
C1829       C  0.52677466  0.87729194  0.14401878    -0.10900
H1830       H  0.95602576  0.85256324  0.16509408     0.08800
H1831       H  0.49538173  0.80876578  0.11043647     0.06300
H1832       H  0.54741183  0.89700452  0.14463717     0.06100
C1833       C  0.49946510  0.62042020  0.85028367     0.03200
C1834       C  0.97339194  0.61919015  0.86136346    -0.13000
C1835       C  0.97391956  0.64277470  0.87993449     0.00700
C1836       C  0.50025326  0.66783822  0.88608622    -0.11500
C1837       C  0.52612189  0.66910441  0.87600917     0.03200
C1838       C  0.52574676  0.64516781  0.85939038    -0.10900
H1839       H  0.95286947  0.60001511  0.85591603     0.08800
H1840       H  0.50069480  0.68603199  0.90030914     0.06300
H1841       H  0.54606975  0.64589310  0.85369941     0.06100
C1842       C  0.87347236  0.99881968  0.16220404     0.03200
C1843       C  0.84788407  0.97278331  0.15444301    -0.13000
C1844       C  0.82463727  0.97290666  0.13625399     0.00700
C1845       C  0.82717162  0.99911849  0.12570774    -0.11500
C1846       C  0.85206282  0.52509960  0.13350814     0.03200
C1847       C  0.87545772  0.52501285  0.15123754    -0.10900
H1848       H  0.84611152  0.95242784  0.16225400     0.08800
H1849       H  0.80987629  0.99932926  0.11004621     0.06300
H1850       H  0.89516642  0.54514024  0.15584986     0.06100
O1851       O  0.86297410  0.63532206  0.43548713    -0.78500
C1852       C  0.88630436  0.72371889  0.43221145     0.82600
O1853       O  0.86630727  0.65734475  0.56522080    -0.79600
O1854       O  0.83211100  0.72224064  0.50951049    -0.81100
O1855       O  0.77495019  0.63085827  0.43473789    -0.80900
O1856       O  0.81709827  0.60153539  0.44402210    -0.79500
Zn1857     Zn  0.86904758  0.66729758  0.47072245     1.55700
O1858       O  0.78942555  0.67768282  0.43952244    -0.80900
Cd1859     Cd  0.80114531  0.62504640  0.47149598     1.59700
Cd1860     Cd  0.83367254  0.66442229  0.54440353     1.59600
O1861       O  0.77398887  0.60415963  0.51570704    -0.80900
O1862       O  0.83321502  0.66251042  0.48870689    -1.91400
Cd1863     Cd  0.82791773  0.69375225  0.46779088     1.59900
O1864       O  0.79348910  0.63357574  0.56479444    -0.80800
O1865       O  0.86059605  0.71924931  0.43222871    -0.79500
C1866       C  0.88774304  0.65857019  0.54771816     0.83100
C1867       C  0.84203908  0.60992326  0.43021977     0.82700
O1868       O  0.89313600  0.70646189  0.44749664    -0.78400
C1869       C  0.77201080  0.65250646  0.42721769     0.83500
O1870       O  0.89048778  0.66302943  0.51297928    -0.78500
C1871       C  0.77282924  0.61119710  0.54945610     0.83700
C1872       C  0.84003839  0.72513664  0.54343860     0.84000
O1873       O  0.84222063  0.70548151  0.56068222    -0.81000
C1874       C  0.88201554  0.87618612  0.64604728     0.03200
C1875       C  0.85669986  0.87811100  0.64134614    -0.13000
C1876       C  0.83209233  0.85537960  0.62471232     0.00700
C1877       C  0.83247740  0.83054303  0.61334688    -0.11500
C1878       C  0.85745000  0.82852038  0.61688542     0.03200
C1879       C  0.88241264  0.85152142  0.63247711    -0.10900
H1880       H  0.85615815  0.89725788  0.65025398     0.08800
H1881       H  0.81359319  0.81318459  0.59987877     0.06300
H1882       H  0.90207846  0.85029153  0.63360817     0.06100
O1883       O  0.60639474  0.81933699  0.46033837    -0.78500
C1884       C  0.65260113  0.76920452  0.44892673     0.82600
O1885       O  0.63613132  0.79180970  0.58068594    -0.79600
O1886       O  0.72529871  0.83361474  0.52732419    -0.81100
O1887       O  0.71115819  0.89148111  0.46760117    -0.80900
O1888       O  0.64037236  0.86531686  0.45376807    -0.79500
Zn1889     Zn  0.62726735  0.80172963  0.48866756     1.55700
O1890       O  0.71694533  0.85516648  0.44676440    -0.80900
Cd1891     Cd  0.67098950  0.86924813  0.49137626     1.59700
Cd1892     Cd  0.66621291  0.83198837  0.56240357     1.59600
O1893       O  0.66530822  0.89064308  0.53528321    -0.80900
O1894       O  0.66378682  0.83129728  0.50720678    -1.91400
Cd1895     Cd  0.69462897  0.82525525  0.48674208     1.59900
O1896       O  0.65640438  0.86223882  0.58434873    -0.80800
O1897       O  0.67753478  0.78468241  0.46328656    -0.79500
C1898       C  0.61300808  0.77267957  0.56503585     0.83100
C1899       C  0.61530072  0.84441925  0.44686508     0.82700
O1900       O  0.63240859  0.77519067  0.45291573    -0.78400
C1901       C  0.72444354  0.88174803  0.44796129     0.83500
O1902       O  0.60583075  0.77552963  0.53202065    -0.78500
C1903       C  0.65793800  0.88439100  0.56909004     0.83700
C1904       C  0.72790050  0.84136888  0.56140840     0.84000
O1905       O  0.70752422  0.84207901  0.57917754    -0.81000
C1906       C  0.62126797  0.50369319  0.64836228     0.03200
C1907       C  0.62044786  0.97699818  0.64459013    -0.13000
C1908       C  0.64363150  0.97540754  0.62873017     0.00700
C1909       C  0.66849651  0.50062990  0.61862481    -0.11500
C1910       C  0.67014855  0.52742808  0.62290479     0.03200
C1911       C  0.64636879  0.52893421  0.63718993    -0.10900
H1912       H  0.60177676  0.95738926  0.65365270     0.08800
H1913       H  0.68625214  0.49929588  0.60586588     0.06300
H1914       H  0.64737767  0.54966057  0.63927970     0.06100
C1915       C  0.99953808  0.62145549  0.65352878     0.03200
C1916       C  0.52621248  0.64717687  0.65138833    -0.13000
C1917       C  0.52764900  0.67189771  0.63629275     0.00700
C1918       C  0.00242607  0.67153446  0.62533201    -0.11500
C1919       C  0.97583551  0.64615313  0.62606321     0.03200
C1920       C  0.97437923  0.62108363  0.64031323    -0.10900
H1921       H  0.54588423  0.64793757  0.66071731     0.08800
H1922       H  0.00390970  0.69067362  0.61295668     0.06300
H1923       H  0.95398178  0.60116147  0.63989481     0.06100
C1924       C  0.00014170  0.87693221  0.34374022     0.03200
C1925       C  0.97486692  0.85203397  0.35539971    -0.13000
C1926       C  0.97656103  0.82907136  0.37168002     0.00700
C1927       C  0.00349536  0.83140778  0.37744151    -0.11500
C1928       C  0.52879506  0.85643904  0.36862839     0.03200
C1929       C  0.52721227  0.87896954  0.35098128    -0.10900
H1930       H  0.95407907  0.85083151  0.35302194     0.08800
H1931       H  0.00484560  0.81406109  0.39114795     0.06300
H1932       H  0.54700486  0.89812728  0.34363139     0.06100
C1933       C  0.61922892  0.62140801  0.34415578     0.03200
C1934       C  0.64415767  0.61992694  0.35305625    -0.13000
C1935       C  0.66757433  0.64292694  0.37103052     0.00700
C1936       C  0.66554737  0.66693768  0.38212430    -0.11500
C1937       C  0.64031742  0.66811126  0.37608958     0.03200
C1938       C  0.61757525  0.64595914  0.35584552    -0.10900
H1939       H  0.64533635  0.60071290  0.34659437     0.08800
H1940       H  0.68325944  0.68429926  0.39735146     0.06300
H1941       H  0.59845356  0.64755385  0.35037152     0.06100
C1942       C  0.87158252  0.48826955  0.34427109     0.03200
C1943       C  0.84716835  0.96389627  0.35796335    -0.13000
C1944       C  0.82464468  0.96662616  0.37361758     0.00700
C1945       C  0.82572969  0.49323829  0.37390435    -0.11500
C1946       C  0.84996528  0.51778924  0.36103018     0.03200
C1947       C  0.87294984  0.51532178  0.34594923    -0.10900
H1948       H  0.84636896  0.94322080  0.35822012     0.08800
H1949       H  0.80843925  0.49522284  0.38700116     0.06300
H1950       H  0.89205879  0.53442533  0.33649778     0.06100
C1951       C  0.99625214  0.99809941  0.21496930     0.45500
H1952       H  0.99524717  0.99990640  0.18478111    -0.03500
C1953       C  0.99777820  0.99720679  0.28722333     0.45500
H1954       H  0.99867209  0.99675454  0.31801907    -0.03500
C1955       C  0.51909285  0.52665771  0.23215941    -0.17200
C1956       C  0.96768654  0.99190075  0.23358867    -0.17000
C1957       C  0.00376809  0.97525540  0.22967635    -0.17400
C1958       C  0.52020914  0.52641381  0.27037553    -0.17300
C1959       C  0.96813261  0.99022025  0.27176696    -0.16900
C1960       C  0.00320973  0.97441307  0.26844427    -0.17200
C1961       C  0.94688714  0.50004757  0.32843427    -0.09100
C1962       C  0.94280878  0.98372219  0.29607547     0.07100
C1963       C  0.91424984  0.96329367  0.28606488    -0.02900
C1964       C  0.89115840  0.96493393  0.30199095    -0.07300
C1965       C  0.89604561  0.98549257  0.32978780     0.06200
C1966       C  0.92401165  0.50176974  0.34478483    -0.02400
Br1967     Br  0.93203795  0.52577500  0.38822118    -0.02100
H1968       H  0.96778863  0.51155860  0.34099033     0.10100
H1969       H  0.86939772  0.95015891  0.29265064     0.08100
Br1970     Br  0.90553738  0.93036408  0.25568166    -0.02500
C1971       C  0.56614708  0.58890489  0.33702242    -0.09100
C1972       C  0.59416863  0.59644815  0.32560153     0.07100
C1973       C  0.59732768  0.57996596  0.29675002    -0.02900
C1974       C  0.57300447  0.55603071  0.28184027    -0.07300
C1975       C  0.54497893  0.54941862  0.29202818     0.06200
C1976       C  0.54184664  0.56670111  0.31954356    -0.02400
Br1977     Br  0.50620765  0.56522857  0.33089182    -0.02100
H1978       H  0.56291089  0.60106008  0.35895415     0.10100
H1979       H  0.57597066  0.54341629  0.26026016     0.08100
Br1980     Br  0.63329535  0.59063188  0.27241555    -0.02500
C1981       C  0.51892839  0.92997983  0.33741886    -0.09100
C1982       C  0.99875871  0.90163795  0.32636563     0.07100
C1983       C  0.97869752  0.89786110  0.29799489    -0.02900
C1984       C  0.97927714  0.92182671  0.28166080    -0.07300
C1985       C  0.00073047  0.94992051  0.29096319     0.06200
C1986       C  0.52032897  0.95390094  0.31971046    -0.02400
Br1987     Br  0.55117072  0.99125310  0.33352105    -0.02100
H1988       H  0.53429447  0.93364576  0.35933960     0.10100
H1989       H  0.96410284  0.91850700  0.25959105     0.08100
Br1990     Br  0.95239999  0.86121855  0.27616673    -0.02500
C1991       C  0.56346070  0.69421511  0.58718636    -0.09100
C1992       C  0.55491883  0.69617647  0.62342490     0.07100
C1993       C  0.56772487  0.72302591  0.64179910    -0.02900
C1994       C  0.58763104  0.74776959  0.62295645    -0.07300
C1995       C  0.59427583  0.74609148  0.58549464     0.06200
C1996       C  0.58280999  0.71884067  0.56808337    -0.02400
Br1997     Br  0.59245468  0.71376248  0.51822378    -0.02100
H1998       H  0.55346266  0.67360549  0.57276420     0.10100
H1999       H  0.59677264  0.76849254  0.63695685     0.08100
Br2000     Br  0.55716097  0.72681540  0.69162087    -0.02500
C2001       C  0.63832047  0.71380124  0.37316458    -0.09100
C2002       C  0.63782819  0.69163053  0.39435783     0.07100
C2003       C  0.63979360  0.69439876  0.43342277    -0.02900
C2004       C  0.64471362  0.71995487  0.45045240    -0.07300
C2005       C  0.64638411  0.74254823  0.42933887     0.06200
C2006       C  0.64222763  0.73913765  0.39054820    -0.02400
Br2007     Br  0.64383198  0.76925786  0.36032606    -0.02100
H2008       H  0.63697086  0.71194020  0.34313958     0.10100
H2009       H  0.64739871  0.72226143  0.48035329     0.08100
Br2010     Br  0.63626921  0.66391269  0.46474903    -0.02500
C2011       C  0.65855080  0.93858707  0.63817721    -0.09100
C2012       C  0.64152603  0.94759088  0.61891847     0.07100
C2013       C  0.62702462  0.93287985  0.58622962    -0.02900
C2014       C  0.63128360  0.91093238  0.57196940    -0.07300
C2015       C  0.64984315  0.90321111  0.58974476     0.06200
C2016       C  0.66256451  0.91627576  0.62400769    -0.02400
Br2017     Br  0.68803350  0.90677799  0.65014743    -0.02100
H2018       H  0.67001222  0.95001530  0.66313639     0.10100
H2019       H  0.62119639  0.90082226  0.54572911     0.08100
Br2020     Br  0.60402278  0.94410570  0.55739100    -0.02500
C2021       C  0.77133321  0.92580252  0.44828968    -0.09100
C2022       C  0.75042305  0.90212029  0.42820371     0.07100
C2023       C  0.75541803  0.89802872  0.39071870    -0.02900
C2024       C  0.78061033  0.91860155  0.37340321    -0.07300
C2025       C  0.80098969  0.94280136  0.39334116     0.06200
C2026       C  0.79675622  0.94576842  0.43142845    -0.02400
Br2027     Br  0.82523203  0.97650564  0.46174642    -0.00100
H2028       H  0.76804334  0.92855468  0.47749952     0.10100
H2029       H  0.78379560  0.91630632  0.34403827     0.08100
Br2030     Br  0.72769806  0.86610254  0.36141176    -0.02500
C2031       C  0.56418403  0.83911003  0.37009293    -0.09100
C2032       C  0.55604647  0.85906775  0.38267596     0.07100
C2033       C  0.56944746  0.87581043  0.41470758    -0.02900
C2034       C  0.58952684  0.87142174  0.43451163    -0.07300
C2035       C  0.59603338  0.85002258  0.42334776     0.06200
C2036       C  0.58403286  0.83453004  0.39017211    -0.02400
Br2037     Br  0.59412958  0.80697965  0.37133938    -0.02100
H2038       H  0.55383667  0.82593563  0.34579980     0.10100
H2039       H  0.59892835  0.88368011  0.45975699     0.08100
Br2040     Br  0.55849723  0.90235374  0.43513314    -0.02500
C2041       C  0.80761130  0.87081117  0.58007692    -0.09100
C2042       C  0.80682954  0.85804312  0.61418244     0.07100
C2043       C  0.78038951  0.84256203  0.63282318    -0.02900
C2044       C  0.75495091  0.83879693  0.61629283    -0.07300
C2045       C  0.75540240  0.84955269  0.58067719     0.06200
C2046       C  0.78222020  0.86657766  0.56311457    -0.02400
Br2047     Br  0.78562322  0.88417224  0.51568908    -0.02100
H2048       H  0.82787830  0.88255299  0.56541145     0.10100
H2049       H  0.73457927  0.82591793  0.63028671     0.08100
Br2050     Br  0.77794341  0.82446876  0.67948936    -0.02500
C2051       C  0.90452061  0.64318491  0.60383927    -0.09100
C2052       C  0.90986681  0.65430007  0.56748501     0.07100
C2053       C  0.93638882  0.66074086  0.55046371    -0.02900
C2054       C  0.95625434  0.65590601  0.56954435    -0.07300
C2055       C  0.95138025  0.64584953  0.60610493     0.06200
C2056       C  0.92508730  0.63912412  0.62324846    -0.02400
Br2057     Br  0.91711676  0.62620681  0.67365597    -0.02100
H2058       H  0.88444139  0.63799875  0.61752051     0.10100
H2059       H  0.97648451  0.66122805  0.55611088     0.08100
Br2060     Br  0.94897065  0.67829429  0.50249621    -0.02500
C2061       C  0.87199523  0.56206906  0.39927202    -0.09100
C2062       C  0.85254735  0.54583229  0.37087960     0.07100
C2063       C  0.83124404  0.55262588  0.35988241    -0.02900
C2064       C  0.82864608  0.57427591  0.37868867    -0.07300
C2065       C  0.84711436  0.58940672  0.40843098     0.06200
C2066       C  0.86926988  0.58353604  0.41829576    -0.02400
Br2067     Br  0.89357242  0.60108036  0.46097806    -0.02100
H2068       H  0.88773906  0.55634224  0.40886384     0.10100
H2069       H  0.81166959  0.57874929  0.37078419     0.08100
Br2070     Br  0.80420172  0.53168158  0.32081202    -0.02500
C2071       C  0.74805634  0.58409845  0.60689370    -0.09100
C2072       C  0.74625381  0.59292615  0.57081047     0.07100
C2073       C  0.71871809  0.58326591  0.55490704    -0.02900
C2074       C  0.69391129  0.56339818  0.57355460    -0.07300
C2075       C  0.69586435  0.55300364  0.60833599     0.06200
C2076       C  0.72309530  0.56413695  0.62558529    -0.02400
Br2077     Br  0.72699677  0.55205046  0.67423120    -0.02100
H2078       H  0.76895302  0.59179783  0.61994120     0.10100
H2079       H  0.67304063  0.55515392  0.56017571     0.08100
Br2080     Br  0.71351123  0.59709602  0.50829052    -0.02500
C2081       C  0.72005957  0.62286528  0.41336435    -0.09100
C2082       C  0.74636493  0.64778274  0.40612446     0.07100
C2083       C  0.74670856  0.66887097  0.38262834    -0.02900
C2084       C  0.72073574  0.66577880  0.36931758    -0.07300
C2085       C  0.69422484  0.64222810  0.37974520     0.06200
C2086       C  0.69400055  0.62035865  0.40152522    -0.02400
Br2087     Br  0.65916893  0.58882583  0.42063957    -0.02100
H2088       H  0.71957081  0.60624448  0.43053270     0.10100
H2089       H  0.72114191  0.68242697  0.35206671     0.08100
Br2090     Br  0.78181043  0.70214238  0.36761154    -0.02500
C2091       C  0.90726089  0.75733215  0.37917821    -0.09100
C2092       C  0.90891280  0.75069686  0.41643003     0.07100
C2093       C  0.93126050  0.77096807  0.43926623    -0.02900
C2094       C  0.95187252  0.79713153  0.42451044    -0.07300
C2095       C  0.95114724  0.80343972  0.38682092     0.06200
C2096       C  0.92849023  0.78330264  0.36405288    -0.02400
Br2097     Br  0.92685300  0.78898648  0.31180875    -0.02100
H2098       H  0.88988865  0.74189345  0.36155777     0.10100
H2099       H  0.96917193  0.81240708  0.44236704     0.08100
Br2100     Br  0.93417092  0.76431676  0.49109873    -0.02500
C2101       C  0.83932837  0.75144903  0.60060797    -0.09100
C2102       C  0.84711495  0.75229974  0.56312424     0.07100
C2103       C  0.86112923  0.77918159  0.54495181    -0.02900
C2104       C  0.86625875  0.80419189  0.56403096    -0.07300
C2105       C  0.85730378  0.80301548  0.60084359     0.06200
C2106       C  0.84385042  0.77647200  0.61925990    -0.02400
Br2107     Br  0.82990672  0.77332676  0.66912914    -0.02100
H2108       H  0.82855479  0.73108440  0.61495947     0.10100
H2109       H  0.87617132  0.82452950  0.54955292     0.08100
Br2110     Br  0.87394349  0.78356082  0.49424549    -0.02500
C2111       C  0.90683737  0.97874014  0.16620691    -0.09100
C2112       C  0.89849382  0.99829427  0.17977713     0.07100
C2113       C  0.91367626  0.01616665  0.21036375    -0.02900
C2114       C  0.93703626  0.01477347  0.22577714    -0.07300
C2115       C  0.94468135  0.99446841  0.21309429     0.06200
C2116       C  0.92922147  0.97630463  0.18292946    -0.02400
Br2117     Br  0.93451672  0.94507446  0.16647915    -0.02100
H2118       H  0.89528164  0.96459968  0.14305240     0.10100
H2119       H  0.94849129  0.52876330  0.24911443     0.08100
Br2120     Br  0.90166678  0.54041084  0.23530396    -0.02500
C2121       C  0.99613832  0.92023259  0.15481073    -0.09100
C2122       C  0.50551710  0.90413176  0.17503586     0.07100
C2123       C  0.02161537  0.91623676  0.20769513    -0.02900
C2124       C  0.02480672  0.94214907  0.22165140    -0.07300
C2125       C  0.01021301  0.95539764  0.20557651     0.06200
C2126       C  0.00012087  0.94664032  0.16850715    -0.02400
Br2127     Br  0.00150182  0.97222519  0.13040161    -0.02100
H2128       H  0.48751554  0.91314894  0.12690309     0.10100
H2129       H  0.03772046  0.95111339  0.24662958     0.08100
Br2130     Br  0.53816870  0.89743504  0.23550040    -0.02500
C2131       C  0.57068160  0.60157861  0.19607871    -0.09100
C2132       C  0.58741659  0.59608101  0.17034008     0.07100
C2133       C  0.57864419  0.56685285  0.16190744    -0.02900
C2134       C  0.55630502  0.54470712  0.18208540    -0.07300
C2135       C  0.54062799  0.55059858  0.20868347     0.06200
C2136       C  0.54673398  0.57922040  0.21344987    -0.02400
Br2137     Br  0.52131803  0.58875451  0.23976102    -0.02100
H2138       H  0.57585036  0.62341061  0.20266307     0.10100
H2139       H  0.55107103  0.52265545  0.17681532     0.08100
Br2140     Br  0.59347761  0.55489375  0.12086805    -0.02500
C2141       C  0.59132946  0.72187119  0.93049116    -0.09100
C2142       C  0.59802479  0.74779356  0.91295402     0.07100
C2143       C  0.58380352  0.74706190  0.87968110    -0.02900
C2144       C  0.56136294  0.72073352  0.86639963    -0.07300
C2145       C  0.55340862  0.69511367  0.88558712     0.06200
C2146       C  0.56925080  0.69563099  0.91704585    -0.02400
Br2147     Br  0.55962498  0.66153872  0.94476444    -0.02100
H2148       H  0.60245776  0.72221259  0.95575115     0.10100
H2149       H  0.54919848  0.72040341  0.84216541     0.08100
Br2150     Br  0.59216100  0.78146018  0.85367110    -0.02500
C2151       C  0.66394993  0.74888806  0.10933045    -0.09100
C2152       C  0.64457900  0.74657992  0.08144311     0.07100
C2153       C  0.61919284  0.71989182  0.07545703    -0.02900
C2154       C  0.61520521  0.69553648  0.09458563    -0.07300
C2155       C  0.63588050  0.69741924  0.12019035     0.06200
C2156       C  0.65945779  0.72471714  0.12921828    -0.02400
Br2157     Br  0.68667179  0.72986329  0.16761913    -0.02100
H2158       H  0.68292248  0.76945762  0.11519003     0.10100
H2159       H  0.59701705  0.67473754  0.08736753     0.08100
Br2160     Br  0.59074862  0.71442284  0.03871408    -0.02500
C2161       C  0.64521876  0.94798509  0.92234645    -0.09100
C2162       C  0.64728368  0.95022824  0.88363517     0.07100
C2163       C  0.65351418  0.93145494  0.86314560    -0.02900
C2164       C  0.65870223  0.91146641  0.88177793    -0.07300
C2165       C  0.65797627  0.91002368  0.92092947     0.06200
C2166       C  0.65022982  0.92814147  0.94111803    -0.02400
Br2167     Br  0.64520193  0.92707250  0.99420594    -0.02100
H2168       H  0.64046903  0.96249130  0.93823279     0.10100
H2169       H  0.66407252  0.89756303  0.86560090     0.08100
Br2170     Br  0.65652083  0.93351895  0.81001409    -0.02500
C2171       C  0.59749545  0.86019641  0.10361654    -0.09100
C2172       C  0.59223409  0.84905327  0.06718186     0.07100
C2173       C  0.56562103  0.84122328  0.05001221    -0.02900
C2174       C  0.54443757  0.84357949  0.06975321    -0.07300
C2175       C  0.54892000  0.85322052  0.10688076     0.06200
C2176       C  0.57596523  0.86206195  0.12373980    -0.02400
Br2177     Br  0.58395924  0.87442166  0.17474958    -0.02100
H2178       H  0.61792809  0.86622557  0.11702484     0.10100
H2179       H  0.52407073  0.83746107  0.05607766     0.08100
Br2180     Br  0.55713865  0.82786372  0.99932859    -0.02500
C2181       C  0.74773982  0.92077755  0.10811702    -0.09100
C2182       C  0.75178348  0.90240483  0.08378171     0.07100
C2183       C  0.77932442  0.90467560  0.08170785    -0.02900
C2184       C  0.80252078  0.92650497  0.10148412    -0.07300
C2185       C  0.79880383  0.94605776  0.12383953     0.06200
C2186       C  0.77080213  0.94214152  0.12850937    -0.02400
Br2187     Br  0.76289798  0.96548001  0.16224812    -0.02100
H2188       H  0.72657927  0.91872580  0.11098179     0.10100
H2189       H  0.82390061  0.92931220  0.09751058     0.08100
Br2190     Br  0.78764254  0.88078939  0.04968255    -0.02500
C2191       C  0.78292736  0.84264466  0.86806641    -0.09100
C2192       C  0.80826014  0.85445982  0.88954872     0.07100
C2193       C  0.80713838  0.86088281  0.92731087    -0.02900
C2194       C  0.78096527  0.85527505  0.94304660    -0.07300
C2195       C  0.75541095  0.84297839  0.92194577     0.06200
C2196       C  0.75656741  0.83684281  0.88391073    -0.02400
Br2197     Br  0.72254266  0.81754083  0.85352477    -0.02100
H2198       H  0.78338672  0.83646321  0.83935456     0.10100
H2199       H  0.78049672  0.86012037  0.97225734     0.08100
Br2200     Br  0.84040833  0.87531068  0.95913235    -0.02500
C2201       C  0.74885963  0.58574920  0.88639268    -0.09100
C2202       C  0.74548363  0.59372249  0.92262718     0.07100
C2203       C  0.71730036  0.58322369  0.93658025    -0.02900
C2204       C  0.69339675  0.56415948  0.91515129    -0.07300
C2205       C  0.69690451  0.55464887  0.88009675     0.06200
C2206       C  0.72489898  0.56594915  0.86546784    -0.02400
Br2207     Br  0.73136217  0.55325706  0.81816995    -0.02100
H2208       H  0.77027847  0.59377772  0.87506457     0.10100
H2209       H  0.67202277  0.55513437  0.92701660     0.08100
Br2210     Br  0.70991272  0.59363587  0.98490192    -0.02500
C2211       C  0.69210058  0.64989298  0.07132278    -0.09100
C2212       C  0.68613483  0.64204484  0.10887240     0.07100
C2213       C  0.70585314  0.63727873  0.12947389    -0.02900
C2214       C  0.73127183  0.64111464  0.11252662    -0.07300
C2215       C  0.73788433  0.65082725  0.07571813     0.06200
C2216       C  0.71786382  0.65493282  0.05501251    -0.02400
Br2217     Br  0.72461256  0.66766544  0.00435988    -0.02100
H2218       H  0.67711386  0.65349339  0.05498445     0.10100
H2219       H  0.74652088  0.63777210  0.12862208     0.08100
Br2220     Br  0.70050079  0.62829437  0.18136830    -0.02500
C2221       C  0.86783337  0.80483260  0.92535151    -0.09100
C2222       C  0.86264393  0.80349694  0.88710278     0.07100
C2223       C  0.85345251  0.77740703  0.86775399    -0.02900
C2224       C  0.84778945  0.75258124  0.88738241    -0.07300
C2225       C  0.85053117  0.75337457  0.92639372     0.06200
C2226       C  0.86175836  0.78022168  0.94510341    -0.02400
Br2227     Br  0.86893420  0.78533271  0.99763323    -0.02100
H2228       H  0.87479497  0.82490789  0.94040267     0.10100
H2229       H  0.83972943  0.73236084  0.87236063     0.08100
Br2230     Br  0.84636058  0.77451787  0.81524011    -0.02500
C2231       C  0.92151052  0.64173763  0.95107962    -0.09100
C2232       C  0.90648903  0.65253881  0.93067429     0.07100
C2233       C  0.91165655  0.65687292  0.89204191    -0.02900
C2234       C  0.93226790  0.65146194  0.87508955    -0.07300
C2235       C  0.94781238  0.64158287  0.89591811     0.06200
C2236       C  0.94197940  0.63632088  0.93407452    -0.02400
Br2237     Br  0.96283152  0.62338284  0.96450340    -0.02100
H2238       H  0.91767415  0.63791510  0.98057714     0.10100
H2239       H  0.93724726  0.65639033  0.84599021     0.08100
Br2240     Br  0.89366428  0.67296189  0.86166391    -0.02500
C2241       C  0.94002872  0.77433992  0.13747390    -0.09100
C2242       C  0.94415105  0.80168714  0.12838998     0.07100
C2243       C  0.92395966  0.80334414  0.10466857    -0.02900
C2244       C  0.90128970  0.77814515  0.08913145    -0.07300
C2245       C  0.89901551  0.75116373  0.09517952     0.06200
C2246       C  0.91792742  0.74927124  0.12091059    -0.02400
Br2247     Br  0.91471761  0.71309033  0.13419637    -0.02100
H2248       H  0.95518914  0.77262928  0.15584282     0.10100
H2249       H  0.88669585  0.77992663  0.07009281     0.08100
Br2250     Br  0.92851964  0.83937229  0.08790249    -0.02500
C2251       C  0.83159963  0.55776343  0.13449067    -0.09100
C2252       C  0.85285895  0.55170486  0.12116223     0.07100
C2253       C  0.87054398  0.56779255  0.09155053    -0.02900
C2254       C  0.86603752  0.58877737  0.07495995    -0.07300
C2255       C  0.84364008  0.59357470  0.08680780     0.06200
C2256       C  0.82682868  0.57847721  0.11749557    -0.02400
Br2257     Br  0.79753506  0.58562332  0.13738986    -0.02100
H2258       H  0.81781510  0.54538824  0.15721811     0.10100
H2259       H  0.87921674  0.60046544  0.05142547     0.08100
Br2260     Br  0.89885937  0.55984464  0.07002340    -0.02500
C2261       C  0.95644024  0.93415112  0.81425889    -0.09100
C2262       C  0.94913842  0.94793582  0.78677800     0.07100
C2263       C  0.91964979  0.93882403  0.78077733    -0.02900
C2264       C  0.89839523  0.91515316  0.79977033    -0.07300
C2265       C  0.90548974  0.90078466  0.82670230     0.06200
C2266       C  0.93509574  0.91114532  0.83456538    -0.02400
Br2267     Br  0.94819476  0.89681452  0.87450889    -0.02100
H2268       H  0.97894480  0.94140268  0.82007899     0.10100
H2269       H  0.87600006  0.90811124  0.79355737     0.08100
Br2270     Br  0.90646134  0.95882447  0.74953451    -0.02500
C2271       C  0.51852116  0.57669608  0.78315069    -0.09100
C2272       C  0.99887271  0.54827765  0.79311528     0.07100
C2273       C  0.98042726  0.54378726  0.82359315    -0.02900
C2274       C  0.98126805  0.56743873  0.84215326    -0.07300
C2275       C  0.49962008  0.59580476  0.83041515     0.06200
C2276       C  0.51810317  0.60012403  0.79996309    -0.02400
Br2277     Br  0.54068899  0.63671213  0.77632310    -0.02100
H2278       H  0.53338301  0.58073634  0.76039189     0.10100
H2279       H  0.96700153  0.56353460  0.86559128     0.08100
Br2280     Br  0.95176261  0.50617819  0.83915532    -0.02500
C2281       C  0.58649612  0.51541607  0.83654213    -0.09100
C2282       C  0.59751564  0.99829098  0.82194992     0.07100
C2283       C  0.58322082  0.98019107  0.79113730    -0.02900
C2284       C  0.55858672  0.97937896  0.77607391    -0.07300
C2285       C  0.54857690  0.99781256  0.78910917     0.06200
C2286       C  0.56254655  0.51552427  0.82040684    -0.02400
Br2287     Br  0.55212459  0.54244140  0.84060019    -0.02100
H2288       H  0.59697170  0.52932131  0.86033077     0.10100
H2289       H  0.54803133  0.96520310  0.75256122     0.08100
Br2290     Br  0.59807256  0.95862313  0.76537981    -0.02500
C2291       C  0.91661414  0.92879967  0.65287987    -0.09100
C2292       C  0.90808354  0.90051837  0.66371388     0.07100
C2293       C  0.92362175  0.89637839  0.69257025    -0.02900
C2294       C  0.94635664  0.92017920  0.71036447    -0.07300
C2295       C  0.95323259  0.94845975  0.70170813     0.06200
C2296       C  0.93866220  0.95261494  0.67158454    -0.02400
Br2297     Br  0.94475453  0.98964763  0.65704437    -0.02100
H2298       H  0.90524597  0.93246252  0.63048002     0.10100
H2299       H  0.95774066  0.91648102  0.73269458     0.08100
Br2300     Br  0.91297084  0.85920632  0.71239828    -0.02500
C2301       C  0.51614119  0.56219840  0.68104335    -0.09100
C2302       C  0.99517661  0.54783683  0.70835199     0.07100
C2303       C  0.97394823  0.55595235  0.71426011    -0.02900
C2304       C  0.97583471  0.57978435  0.69607555    -0.07300
C2305       C  0.99769585  0.59519287  0.67022285     0.06200
C2306       C  0.51722250  0.58528356  0.66149201    -0.02400
Br2307     Br  0.54434329  0.60072751  0.62144151    -0.02100
H2308       H  0.53196700  0.55558911  0.67507749     0.10100
H2309       H  0.96007258  0.58640484  0.70240913     0.08100
Br2310     Br  0.94085010  0.53472429  0.74492823    -0.02500
C2311       C  0.54499402  0.48539616  0.67648924    -0.09100
C2312       C  0.55071971  0.50548950  0.70509101     0.07100
C2313       C  0.57943244  0.52740319  0.71128453    -0.02900
C2314       C  0.60199817  0.52662490  0.69236700    -0.07300
C2315       C  0.59650012  0.50525170  0.66539090     0.06200
C2316       C  0.56741285  0.48547625  0.65614643    -0.02400
Br2317     Br  0.55641966  0.45932767  0.61460846    -0.02100
H2318       H  0.52290859  0.46922038  0.67026842     0.10100
H2319       H  0.62398303  0.54269568  0.69914938     0.08100
Br2320     Br  0.58893014  0.05966285  0.74364481    -0.02500
loop_ 
_geom_bond_atom_site_label_1 
_geom_bond_atom_site_label_2 
_geom_bond_distance 
_geom_bond_site_symmetry_2 
_ccdc_geom_bond_type 
C1            H2   1.108       .  S
C1            C6   1.547   1_565  S
C1         C1747   1.547   1_565  S
C1          C585   1.547       .  S
C3            H4   1.110   1_655  S
C3           C10   1.536   1_655  S
C3          C589   1.537       .  S
C3         C1168   1.538       .  S
C5          C581   1.547       .  S
C5            C8   1.381       .  D
C5          C522   1.498       .  S
C6         C1169   1.382       .  D
C6          C532   1.499       .  S
C7         C1741   1.547   1_455  S
C7           C10   1.379       .  D
C7          C545   1.507       .  S
C8         C1163   1.538       .  S
C8          C555   1.499       .  S
C9          C583   1.537       .  S
C9         C1166   1.382       .  D
C9         C1722   1.494       .  S
C10        C1152   1.490       .  S
O11          C27   1.280       .  A
O11         Zn17   2.047       .  S
C12          O28   1.274       .  A
C12          O25   1.278       .  A
C12         C475   1.474       .  S
O13          C26   1.276       .  A
O13         Cd20   2.073       .  S
O14          C32   1.275       .  A
O14         Cd23   2.064   1_556  S
O15          C29   1.278       .  A
O15         Cd19   2.082       .  S
O16          C27   1.271       .  A
O16         Cd19   2.038       .  S
Zn17         O28   2.024       .  S
Zn17         O30   2.046   1_554  S
Zn17         O22   1.935       .  S
O18          C29   1.277       .  A
O18         Cd23   2.084       .  S
Cd19         O21   2.081   1_554  S
Cd19         O22   1.980       .  S
Cd20         O24   2.076       .  S
Cd20         O33   2.078       .  S
Cd20         O22   1.993   1_556  S
O21          C31   1.278       .  A
O22         Cd23   1.979       .  S
Cd23         O25   2.080       .  S
O24          C31   1.275       .  A
C26          O30   1.279       .  A
C26         C462   1.484       .  S
C27         C515   1.469       .  S
C29         C505   1.485       .  S
C31         C492   1.486       .  S
C32          O33   1.276       .  A
C32         C485   1.483       .  S
C34         C525   1.498       .  S
C34          C35   1.418       .  A
C34          C39   1.413       .  A
C35          C36   1.404       .  A
C35          H40   1.083       .  S
C36         C452   1.474       .  S
C36          C37   1.390       .  A
C37          C38   1.394       .  A
C37          H41   1.086       .  S
C38         C482   1.470       .  S
C38          C39   1.403       .  A
C39          H42   1.082       .  S
O43          C59   1.274       .  A
O43         Zn49   2.023       .  S
C44          O60   1.277       .  A
C44          O57   1.273       .  A
C44         C442   1.479       .  S
O45          C58   1.278       .  A
O45         Cd52   2.085       .  S
O46          C64   1.279       .  A
O46         Cd55   2.073   1_556  S
O47          C61   1.270       .  A
O47         Cd51   2.043       .  S
O48          C59   1.272       .  A
O48         Cd51   2.041       .  S
Zn49         O60   2.026       .  S
Zn49         O62   2.012   1_554  S
Zn49         O54   1.921   1_554  S
O50          C61   1.279       .  A
O50         Cd55   2.087       .  S
Cd51         O53   2.039   1_554  S
Cd51         O54   1.961   1_554  S
Cd52         O56   2.089       .  S
Cd52         O65   2.080       .  S
Cd52         O54   1.997       .  S
O53          C63   1.272       .  A
O54         Cd55   1.976   1_556  S
Cd55         O57   2.062       .  S
O56          C63   1.276       .  A
C58          O62   1.275       .  A
C58         C425   1.489       .  S
C59         C432   1.468       .  S
C61         C412   1.473       .  S
C63         C402   1.470       .  S
C64          O65   1.278       .  A
C64         C455   1.480       .  S
C66         C392   1.506       .  S
C66          C67   1.419       .  A
C66          C71   1.417       .  A
C67          C68   1.408       .  A
C67          H72   1.079       .  S
C68         C472   1.486       .  S
C68          C69   1.393       .  A
C69          C70   1.392       .  A
C69          H73   1.085       .  S
C70         C415   1.479       .  S
C70          C71   1.403       .  A
C71          H74   1.082       .  S
C75         C542   1.497       .  S
C75          C76   1.413       .  A
C75         C660   1.417       .  A
C76          C77   1.403       .  A
C76          H81   1.084       .  S
C77         C422   1.474       .  S
C77          C78   1.394       .  A
C78         C659   1.394       .  A
C78          H82   1.085       .  S
C79         C465   1.478       .  S
C79          C80   1.408       .  A
C79         C658   1.394       .  A
C80         C655   1.417   1_545  A
C80          H83   1.084       .  S
C84         C382   1.478       .  S
C84          C89   1.402       .  A
C84        C1245   1.411   1_455  A
C85          C86   1.410       .  A
C85        C1244   1.411       .  A
C85          H90   1.083       .  S
C86         C502   1.488       .  S
C86        C1247   1.400       .  A
C87          C88   1.400   1_655  A
C87        C1246   1.400       .  A
C87          H91   1.085       .  S
C88         C435   1.479       .  S
C88          C89   1.399       .  A
C89          H92   1.084       .  S
C93         C535   1.494       .  S
C93          C98   1.408   1_655  A
C93        C1254   1.416       .  A
C94          C95   1.408       .  A
C94        C1253   1.416       .  A
C94          H99   1.084       .  S
C95         C495   1.478       .  S
C95        C1256   1.397       .  A
C96          C97   1.395       .  A
C96        C1255   1.397   1_455  A
C96         H100   1.084       .  S
C97         C405   1.470       .  S
C97          C98   1.397       .  A
C98         H101   1.084       .  S
C102        C372   1.489       .  S
C102        C103   1.412       .  A
C102        C687   1.410       .  A
C103        C104   1.405       .  A
C103        H108   1.084       .  S
C104        C445   1.480       .  S
C104        C105   1.395       .  A
C105        C686   1.393       .  A
C105        H109   1.086       .  S
C106        C512   1.474       .  S
C106        C107   1.403       .  A
C106        C685   1.393   1_545  A
C107        C682   1.410   1_545  A
C107        H110   1.081       .  S
O111        C127   1.274       .  A
O111       Zn117   2.010       .  S
C112        O128   1.275       .  A
C112        O125   1.270       .  A
C112        C352   1.467       .  S
O113        C126   1.278       .  A
O113       Cd120   2.095       .  S
O114        C132   1.274       .  A
O114       Cd123   2.058       .  S
O115        C129   1.273       .  A
O115       Cd119   2.057       .  S
O116        C127   1.277       .  A
O116       Cd119   2.075       .  S
Zn117       O128   2.026       .  S
Zn117       O130   1.983       .  S
Zn117       O122   1.911       .  S
O118        C129   1.274       .  A
O118       Cd123   2.056       .  S
Cd119       O121   2.075       .  S
Cd119       O122   1.978       .  S
Cd120       O124   2.093       .  S
Cd120       O133   2.086       .  S
Cd120       O122   2.004       .  S
O121        C131   1.278       .  A
O122       Cd123   1.980       .  S
Cd123       O125   2.053       .  S
O124        C131   1.279       .  A
C126        O130   1.269       .  A
C126        C312   1.489       .  S
C127        C325   1.471       .  S
C129        C342   1.472       .  S
C131        C332   1.483       .  S
C132        O133   1.278       .  A
C132        C362   1.480       .  S
C134        C552   1.492       .  S
C134        C135   1.414       .  A
C134        C139   1.411       .  A
C135        C136   1.403       .  A
C135        H140   1.083       .  S
C136        C302   1.473       .  S
C136        C137   1.394       .  A
C137        C138   1.394       .  A
C137        H141   1.085       .  S
C138        C365   1.471       .  S
C138        C139   1.403       .  A
C139        H142   1.083       .  S
O143        C159   1.281       .  A
O143       Zn149   2.053       .  S
C144        O160   1.273       .  A
C144        O157   1.275       .  A
C144        C265   1.466       .  S
O145        C158   1.275       .  A
O145       Cd152   2.059       .  S
O146        C164   1.275       .  A
O146       Cd155   2.067       .  S
O147        C161   1.275       .  A
O147       Cd151   2.058       .  S
O148        C159   1.271       .  A
O148       Cd151   2.048       .  S
Zn149       O160   2.021       .  S
Zn149       O162   2.039       .  S
Zn149       O154   1.917       .  S
O150        C161   1.271       .  A
O150       Cd155   2.050       .  S
Cd151       O153   2.049       .  S
Cd151       O154   1.959       .  S
Cd152       O156   2.078       .  S
Cd152       O165   2.081       .  S
Cd152       O154   1.988       .  S
O153        C163   1.274       .  A
O154       Cd155   1.967       .  S
Cd155       O157   2.063       .  S
O156        C163   1.275       .  A
C158        O162   1.281       .  A
C158        C255   1.475       .  S
C159        C295   1.473       .  S
C161        C282   1.461       .  S
C163        C275   1.470       .  S
C164        O165   1.277       .  A
C164        C305   1.478       .  S
C166        C575   1.494       .  S
C166        C171   1.414       .  A
C166        C747   1.410   1_545  A
C167        C168   1.401       .  A
C167        C746   1.410       .  A
C167        H172   1.082       .  S
C168        C272   1.473       .  S
C168        C749   1.397       .  A
C169        C170   1.397       .  A
C169        C748   1.397   1_545  A
C169        H173   1.085   1_545  S
C170        C335   1.478       .  S
C170        C171   1.406       .  A
C171        H174   1.084       .  S
C175        C565   1.490       .  S
C175        C180   1.414       .  A
C175       C1336   1.411       .  A
C176        C177   1.400       .  A
C176       C1335   1.411   1_455  A
C176        H181   1.083       .  S
C177        C252   1.470       .  S
C177       C1338   1.392       .  A
C178        C179   1.397       .  A
C178       C1337   1.392       .  A
C178        H182   1.086       .  S
C179        C315   1.482       .  S
C179        C180   1.405       .  A
C180        H183   1.083       .  S
C184        C242   1.500       .  S
C184        C185   1.415       .  A
C184       C1349   1.417       .  A
C185        C186   1.407       .  A
C185        H190   1.081       .  S
C186        C355   1.480       .  S
C186        C187   1.394       .  A
C187       C1348   1.391       .  A
C187        H191   1.087       .  S
C188        C292   1.478       .  S
C188        C189   1.405       .  A
C188       C1347   1.391       .  A
C189       C1344   1.417       .  A
C189        H192   1.082       .  S
C193        C232   1.494       .  S
C193        C194   1.407       .  A
C193        C198   1.417       .  A
C194        C195   1.399       .  A
C194        H199   1.082       .  S
C195        C345   1.474       .  S
C195        C196   1.394       .  A
C196        C197   1.394       .  A
C196        H200   1.085       .  S
C197        C262   1.475       .  S
C197        C198   1.403       .  A
C198        H201   1.082       .  S
C202        C805   1.478       .  S
C202        C207   1.411   1_565  A
C202        C783   1.404       .  A
C203        C204   1.397       .  A
C203        C782   1.404       .  A
C203        H208   1.084       .  S
C204        C285   1.465       .  S
C204        C785   1.394       .  A
C205        C206   1.394   1_565  A
C205        C784   1.394       .  A
C205        H209   1.085       .  S
C206        C322   1.475       .  S
C206        C207   1.404       .  A
C207        H210   1.084       .  S
C211        H212   1.095       .  S
C211        C217   1.557       .  S
C211        C216   1.544       .  S
C211       C1955   1.530       .  S
C213        H214   1.110       .  S
C213        C219   1.537       .  S
C213        C220   1.534       .  S
C213       C1958   1.552       .  S
C215       C1951   1.530   1_445  S
C215        C218   1.376       .  D
C215        C395   1.496       .  S
C216        C219   1.378       .  D
C216        C375   1.495       .  S
C217        C220   1.395       .  D
C217        C385   1.528       .  S
C218       C1953   1.552   1_445  S
C218        C235   1.497       .  S
C219        C222   1.500       .  S
C220        C245   1.495       .  S
C221        C226   1.397       .  A
C221        C802   1.398   1_545  A
C221        H228   1.069       .  S
C222        C223   1.411       .  A
C222        C801   1.398       .  A
C223        C224   1.399       .  A
C223       Br230   1.913       .  S
C224        C225   1.403       .  A
C224        H229   1.083       .  S
C225        C782   1.478       .  S
C225        C806   1.408       .  A
C226        C805   1.408   1_545  A
C226       Br227   1.920       .  S
C231        C232   1.404       .  A
C231        C236   1.396       .  A
C231        H238   1.083       .  S
C232        C233   1.417       .  A
C233        C234   1.398       .  A
C233       Br240   1.923       .  S
C234        C235   1.405       .  A
C234        H239   1.085       .  S
C235        C236   1.412       .  A
C236       Br237   1.907       .  S
C241        C246   1.402       .  A
C241       C1402   1.410   1_455  A
C241        H248   1.082       .  S
C242        C243   1.418       .  A
C242       C1401   1.410       .  A
C243        C244   1.400       .  A
C243       Br250   1.917       .  S
C244        C245   1.403       .  A
C244        H249   1.083       .  S
C245       C1406   1.408       .  A
C246       C1405   1.408       .  A
C246       Br247   1.917       .  S
C251        C252   1.400       .  A
C251        C256   1.394       .  A
C251        H258   1.084       .  S
C252        C253   1.405       .  A
C253        C254   1.402       .  A
C253       Br260   1.916       .  S
C254        C255   1.406       .  A
C254        H259   1.083       .  S
C255        C256   1.410       .  A
C256       Br257   1.918       .  S
C261        C262   1.404       .  A
C261        C266   1.404       .  A
C261        H268   1.083       .  S
C262        C263   1.410       .  A
C263        C264   1.392       .  A
C263       Br270   1.921       .  S
C264        C265   1.398       .  A
C264        H269   1.083       .  S
C265        C266   1.408       .  A
C266       Br267   1.917       .  S
C271        C272   1.405       .  A
C271        C276   1.402       .  A
C271        H278   1.083       .  S
C272        C273   1.407       .  A
C273        C274   1.393       .  A
C273       Br280   1.918       .  S
C274        C275   1.402       .  A
C274        H279   1.084       .  S
C275        C276   1.408       .  A
C276       Br277   1.917       .  S
C281        C282   1.399       .  A
C281        C286   1.388       .  A
C281        H288   1.085       .  S
C282        C283   1.410       .  A
C283        C284   1.398       .  A
C283       Br290   1.919       .  S
C284        C285   1.401       .  A
C284        H289   1.085       .  S
C285        C286   1.408       .  A
C286       Br287   1.922       .  S
C291        C292   1.406       .  A
C291        C296   1.400       .  A
C291        H298   1.081       .  S
C292        C293   1.410       .  A
C293        C294   1.400       .  A
C293       Br300   1.920       .  S
C294        C295   1.404       .  A
C294        H299   1.081       .  S
C295        C296   1.406       .  A
C296       Br297   1.918       .  S
C301        C302   1.400       .  A
C301        C306   1.397       .  A
C301        H308   1.084       .  S
C302        C303   1.407       .  A
C303        C304   1.401       .  A
C303       Br310   1.917       .  S
C304        C305   1.404       .  A
C304        H309   1.084       .  S
C305        C306   1.413       .  A
C306       Br307   1.920       .  S
C311        C312   1.411       .  A
C311        C316   1.405       .  A
C311        H318   1.084       .  S
C312        C313   1.420       .  A
C313        C314   1.391       .  A
C313       Br320   1.927       .  S
C314        C315   1.400       .  A
C314        H319   1.085       .  S
C315        C316   1.407       .  A
C316       Br317   1.918       .  S
C321        C322   1.402       .  A
C321        C326   1.398       .  A
C321        H328   1.083       .  S
C322        C323   1.410       .  A
C323        C324   1.399       .  A
C323       Br330   1.919       .  S
C324        C325   1.402       .  A
C324        H329   1.083       .  S
C325        C326   1.410       .  A
C326       Br327   1.921       .  S
C331        C332   1.404       .  A
C331        C336   1.404       .  A
C331        H338   1.084       .  S
C332        C333   1.413       .  A
C333        C334   1.397       .  A
C333       Br340   1.913       .  S
C334        C335   1.398       .  A
C334        H339   1.085       .  S
C335        C336   1.410       .  A
C336       Br337   1.917       .  S
C341        C342   1.404       .  A
C341        C346   1.395       .  A
C341        H348   1.076       .  S
C342        C343   1.408       .  A
C343        C344   1.395       .  A
C343       Br350   1.920       .  S
C344        C345   1.405       .  A
C344        H349   1.081       .  S
C345        C346   1.408       .  A
C346       Br347   1.922       .  S
C351        C352   1.403       .  A
C351        C356   1.402       .  A
C351        H358   1.084       .  S
C352        C353   1.406       .  A
C353        C354   1.393       .  A
C353       Br360   1.922       .  S
C354        C355   1.405       .  A
C354        H359   1.085       .  S
C355        C356   1.410       .  A
C356       Br357   1.915       .  S
C361        C362   1.405       .  A
C361        C366   1.400       .  A
C361        H368   1.083       .  S
C362        C363   1.416       .  A
C363        C364   1.397       .  A
C363       Br370   1.923       .  S
C364        C365   1.399       .  A
C364        H369   1.084       .  S
C365        C366   1.406       .  A
C366       Br367   1.918       .  S
C371        C372   1.406       .  A
C371        C376   1.399       .  A
C371        H378   1.083       .  S
C372        C373   1.412       .  A
C373        C374   1.399       .  A
C373       Br960   1.920       .  S
C374        C375   1.406       .  A
C374        H959   1.083       .  S
C375        C376   1.410       .  A
C376       Br377   1.913       .  S
H379        C954   1.083       .  S
Br380       C953   1.920       .  S
C381        C386   1.403       .  A
C381       C1542   1.399       .  A
C381       H1548   1.088       .  S
C382       C1541   1.399   1_455  A
C382       C1543   1.404       .  A
C383        C384   1.397       .  A
C383       C1542   1.404       .  A
C383      Br1550   1.919       .  S
C384        C385   1.412       .  A
C384        H389   1.085       .  S
C385        C386   1.423       .  A
C386       Br387   1.921       .  S
H388       C1541   1.088       .  S
Br390      C1543   1.919       .  S
C391        C392   1.411       .  A
C391        C396   1.398       .  A
C391        H398   1.082       .  S
C392        C393   1.421       .  A
C393        C394   1.404       .  A
C393       Br400   1.921       .  S
C394        C395   1.402       .  A
C394        H399   1.083       .  S
C395        C396   1.406       .  A
C396       Br397   1.914       .  S
C401        C402   1.404       .  A
C401        C406   1.394       .  A
C401        H408   1.080       .  S
C402        C403   1.407       .  A
C403        C404   1.402       .  A
C403       Br410   1.917       .  S
C404        C405   1.405       .  A
C404        H409   1.081       .  S
C405        C406   1.404       .  A
C406       Br407   1.920       .  S
C411        C412   1.400       .  A
C411        C416   1.396       .  A
C411        H418   1.083       .  S
C412        C413   1.414       .  A
C413        C414   1.398       .  A
C413       Br420   1.920       .  S
C414        C415   1.401       .  A
C414        H419   1.083       .  S
C415        C416   1.412       .  A
C416       Br417   1.921       .  S
C421        C422   1.398       .  A
C421        C426   1.395       .  A
C421        H428   1.084       .  S
C422        C423   1.405       .  A
C423        C424   1.404       .  A
C423       Br430   1.917       .  S
C424        C425   1.410       .  A
C424        H429   1.083       .  S
C425        C426   1.420       .  A
C426       Br427   1.925       .  S
C431        C432   1.404       .  A
C431        C436   1.401       .  A
C431        H438   1.084       .  S
C432        C433   1.407       .  A
C433        C434   1.390       .  A
C433       Br440   1.922   1_554  S
C434        C435   1.404       .  A
C434        H439   1.084       .  S
C435        C436   1.412       .  A
C436       Br437   1.919       .  S
C441        C442   1.403       .  A
C441        C446   1.397       .  A
C441        H448   1.083       .  S
C442        C443   1.414       .  A
C443        C444   1.399       .  A
C443       Br450   1.919       .  S
C444        C445   1.402       .  A
C444        H449   1.083       .  S
C445        C446   1.412       .  A
C446       Br447   1.922       .  S
C451        C452   1.403       .  A
C451        C456   1.403       .  A
C451        H458   1.085       .  S
C452        C453   1.406       .  A
C453        C454   1.395       .  A
C453       Br460   1.920       .  S
C454        C455   1.404       .  A
C454        H459   1.083       .  S
C455        C456   1.412       .  A
C456       Br457   1.919       .  S
C461        C462   1.406       .  A
C461        C466   1.403       .  A
C461        H468   1.083       .  S
C462        C463   1.413       .  A
C463        C464   1.400       .  A
C463       Br470   1.919       .  S
C464        C465   1.401       .  A
C464        H469   1.084       .  S
C465        C466   1.409       .  A
C466       Br467   1.918       .  S
C471        C472   1.407       .  A
C471        C476   1.393       .  A
C471        H478   1.084       .  S
C472        C473   1.410       .  A
C473        C474   1.406       .  A
C473       Br480   1.917       .  S
C474        C475   1.406       .  A
C474        H479   1.083       .  S
C475        C476   1.406       .  A
C476       Br477   1.922       .  S
C481        C482   1.397       .  A
C481        C486   1.391       .  A
C481        H488   1.085       .  S
C482        C483   1.405       .  A
C483        C484   1.404       .  A
C483       Br490   1.916       .  S
C484        C485   1.409       .  A
C484        H489   1.084       .  S
C485        C486   1.415       .  A
C486       Br487   1.918       .  S
C491        C492   1.406       .  A
C491        C496   1.399       .  A
C491        H498   1.082       .  S
C492        C493   1.415       .  A
C493        C494   1.404       .  A
C493       Br500   1.920       .  S
C494        C495   1.402       .  A
C494        H499   1.082       .  S
C495        C496   1.407       .  A
C496       Br497   1.920       .  S
C501        C502   1.408       .  A
C501        C506   1.401       .  A
C501        H508   1.083       .  S
C502        C503   1.411       .  A
C503        C504   1.402       .  A
C503       Br510   1.920       .  S
C504        C505   1.405       .  A
C504        H509   1.076       .  S
C505        C506   1.409       .  A
C506       Br507   1.920       .  S
C511        C512   1.406       .  A
C511        C516   1.398       .  A
C511        H518   1.084       .  S
C512        C513   1.407       .  A
C513        C514   1.396       .  A
C513       Br520   1.919       .  S
C514        C515   1.405       .  A
C514        H519   1.085       .  S
C515        C516   1.405       .  A
C516       Br517   1.918       .  S
C521        C522   1.403       .  A
C521        C526   1.405       .  A
C521        H528   1.083       .  S
C522        C523   1.414       .  A
C523        C524   1.397       .  A
C523       Br530   1.914       .  S
C524        C525   1.404       .  A
C524        H529   1.083       .  S
C525        C526   1.419       .  A
C526       Br527   1.920       .  S
C531        C536   1.395       .  A
C531       C1692   1.404   1_455  A
C531        H538   1.086       .  S
C532        C533   1.413       .  A
C532       C1691   1.404       .  A
C533        C534   1.404       .  A
C533       Br540   1.917       .  S
C534       C1695   1.407       .  A
C534        H539   1.086       .  S
C535        C536   1.415   1_655  A
C535       C1694   1.407       .  A
C536       Br537   1.924       .  S
C541        C546   1.405       .  A
C541       C1122   1.407   1_545  A
C541        H548   1.084       .  S
C542        C543   1.413       .  A
C542       C1121   1.407       .  A
C543        C544   1.402       .  A
C543       Br550   1.921       .  S
C544        C545   1.409       .  A
C544        H549   1.083       .  S
C545       C1126   1.415       .  A
C546       C1125   1.415   1_545  A
C546       Br547   1.916       .  S
C551        C552   1.405       .  A
C551        C556   1.400       .  A
C551        H558   1.084       .  S
C552        C553   1.414       .  A
C553        C554   1.400       .  A
C553       Br560   1.921       .  S
C554        C555   1.406       .  A
C554        H559   1.084       .  S
C555        C556   1.415       .  A
C556       Br557   1.918       .  S
C561        C566   1.402       .  A
C561       C1722   1.403   1_455  A
C561        H568   1.084       .  S
C562       C1169   1.494       .  S
C562        C563   1.413       .  A
C562       C1721   1.403       .  A
C563        C564   1.396       .  A
C563       Br570   1.914       .  S
C564        C565   1.403       .  A
C564        H569   1.084       .  S
C565       C1726   1.415       .  A
C566       C1725   1.415   1_455  A
C566       Br567   1.921       .  S
C571        C572   1.400   1_565  A
C571        C576   1.399       .  A
C571        H578   1.084       .  S
C572        C590   1.490       .  S
C572        C573   1.411       .  A
C573        C574   1.400       .  A
C573      Br1160   1.918       .  S
C574        C575   1.407       .  A
C574        H579   1.083       .  S
C575        C576   1.417   1_545  A
C576       Br577   1.918       .  S
Br580      C1153   1.918       .  S
C581        H582   1.108       .  S
C581       C1167   1.547       .  S
C581        C586   1.547       .  S
C583        H584   1.110   1_655  S
C583       C1748   1.538   1_545  S
C583        C590   1.536   1_655  S
C585        C588   1.381       .  D
C585       C1102   1.498       .  S
C586       C1749   1.382       .  D
C586       C1112   1.499       .  S
C587       C1161   1.547   1_445  S
C587        C590   1.379       .  D
C587       C1125   1.507   1_545  S
C588       C1743   1.538   1_565  S
C588       C1135   1.499       .  S
C589       C1746   1.382       .  D
C589       C2302   1.494       .  S
O591        C607   1.280       .  A
O591       Zn597   2.047       .  S
C592        O608   1.274       .  A
C592        O605   1.278       .  A
C592       C1055   1.474       .  S
O593        C606   1.276       .  A
O593       Cd600   2.073       .  S
O594        C612   1.275       .  A
O594       Cd603   2.064   1_556  S
O595        C609   1.278       .  A
O595       Cd599   2.082       .  S
O596        C607   1.271       .  A
O596       Cd599   2.038       .  S
Zn597       O608   2.024       .  S
Zn597       O610   2.046   1_554  S
Zn597       O602   1.935       .  S
O598        C609   1.277       .  A
O598       Cd603   2.084       .  S
Cd599       O601   2.081   1_554  S
Cd599       O602   1.980       .  S
Cd600       O604   2.076       .  S
Cd600       O613   2.078       .  S
Cd600       O602   1.993   1_556  S
O601        C611   1.278       .  A
O602       Cd603   1.979       .  S
Cd603       O605   2.080       .  S
O604        C611   1.275       .  A
C606        O610   1.279       .  A
C606       C1042   1.484       .  S
C607       C1095   1.469       .  S
C609       C1085   1.485       .  S
C611       C1072   1.486       .  S
C612        O613   1.276       .  A
C612       C1065   1.483       .  S
C614       C1105   1.498       .  S
C614        C615   1.418       .  A
C614        C619   1.413       .  A
C615        C616   1.404       .  A
C615        H620   1.083       .  S
C616       C1032   1.474       .  S
C616        C617   1.390       .  A
C617        C618   1.394       .  A
C617        H621   1.086       .  S
C618       C1062   1.470       .  S
C618        C619   1.403       .  A
C619        H622   1.082       .  S
O623        C639   1.274       .  A
O623       Zn629   2.023       .  S
C624        O640   1.277       .  A
C624        O637   1.273       .  A
C624       C1022   1.479       .  S
O625        C638   1.278       .  A
O625       Cd632   2.085       .  S
O626        C644   1.279       .  A
O626       Cd635   2.073   1_556  S
O627        C641   1.270       .  A
O627       Cd631   2.043       .  S
O628        C639   1.272       .  A
O628       Cd631   2.041       .  S
Zn629       O640   2.026       .  S
Zn629       O642   2.012   1_554  S
Zn629       O634   1.921   1_554  S
O630        C641   1.279       .  A
O630       Cd635   2.087       .  S
Cd631       O633   2.039   1_554  S
Cd631       O634   1.961   1_554  S
Cd632       O636   2.089       .  S
Cd632       O645   2.080       .  S
Cd632       O634   1.997       .  S
O633        C643   1.272       .  A
O634       Cd635   1.976   1_556  S
Cd635       O637   2.062       .  S
O636        C643   1.276       .  A
C638        O642   1.275       .  A
C638       C1005   1.489       .  S
C639       C1012   1.468       .  S
C641        C992   1.473       .  S
C643        C982   1.470       .  S
C644        O645   1.278       .  A
C644       C1035   1.480       .  S
C646        C972   1.506       .  S
C646        C647   1.419       .  A
C646        C651   1.417       .  A
C647        C648   1.408       .  A
C647        H652   1.079       .  S
C648       C1052   1.486       .  S
C648        C649   1.393       .  A
C649        C650   1.392       .  A
C649        H653   1.085       .  S
C650        C995   1.479       .  S
C650        C651   1.403       .  A
C651        H654   1.083       .  S
C655       C1122   1.497       .  S
C655        C656   1.413       .  A
C656        C657   1.404       .  A
C656        H661   1.084       .  S
C657       C1002   1.474       .  S
C657        C658   1.394   1_565  A
C658        H662   1.085       .  S
C659       C1045   1.478       .  S
C659        C660   1.408       .  A
C660        H663   1.084       .  S
C664        C962   1.478       .  S
C664       C1825   1.411   1_455  A
C664        C669   1.402       .  A
C665       C1824   1.411       .  A
C665        C666   1.410       .  A
C665        H670   1.083       .  S
C666       C1082   1.488       .  S
C666       C1827   1.400       .  A
C667       C1826   1.400       .  A
C667        C668   1.400   1_655  A
C667        H671   1.085       .  S
C668       C1015   1.479       .  S
C668        C669   1.399       .  A
C669        H672   1.084       .  S
C673       C1115   1.494       .  S
C673       C1834   1.416       .  A
C673        C678   1.408   1_655  A
C674       C1833   1.416       .  A
C674        C675   1.408       .  A
C674        H679   1.084       .  S
C675       C1075   1.478       .  S
C675       C1836   1.397       .  A
C676       C1835   1.397   1_455  A
C676        C677   1.395       .  A
C676        H680   1.084       .  S
C677        C985   1.470       .  S
C677        C678   1.397       .  A
C678        H681   1.084       .  S
C682        C952   1.489       .  S
C682        C683   1.412       .  A
C683        C684   1.405       .  A
C683        H688   1.084       .  S
C684       C1025   1.480       .  S
C684        C685   1.395       .  A
C685        H689   1.086       .  S
C686       C1092   1.474       .  S
C686        C687   1.403       .  A
C687        H690   1.081       .  S
O691        C707   1.274       .  A
O691       Zn697   2.010       .  S
C692        O708   1.275       .  A
C692        O705   1.270       .  A
C692        C932   1.467       .  S
O693        C706   1.278       .  A
O693       Cd700   2.095       .  S
O694        C712   1.274       .  A
O694       Cd703   2.058       .  S
O695        C709   1.273       .  A
O695       Cd699   2.057       .  S
O696        C707   1.277       .  A
O696       Cd699   2.075       .  S
Zn697       O708   2.026       .  S
Zn697       O710   1.983       .  S
Zn697       O702   1.911       .  S
O698        C709   1.274       .  A
O698       Cd703   2.056       .  S
Cd699       O701   2.075       .  S
Cd699       O702   1.978       .  S
Cd700       O704   2.093       .  S
Cd700       O713   2.086       .  S
Cd700       O702   2.004       .  S
O701        C711   1.278       .  A
O702       Cd703   1.980       .  S
Cd703       O705   2.053       .  S
O704        C711   1.279       .  A
C706        O710   1.269       .  A
C706        C892   1.489       .  S
C707        C905   1.471       .  S
C709        C922   1.472       .  S
C711        C912   1.483       .  S
C712        O713   1.278       .  A
C712        C942   1.480       .  S
C714       C1132   1.492       .  S
C714        C715   1.414       .  A
C714        C719   1.411       .  A
C715        C716   1.403       .  A
C715        H720   1.083       .  S
C716        C882   1.473       .  S
C716        C717   1.394       .  A
C717        C718   1.394       .  A
C717        H721   1.085       .  S
C718        C945   1.471       .  S
C718        C719   1.403       .  A
C719        H722   1.083       .  S
O723        C739   1.281       .  A
O723       Zn729   2.053       .  S
C724        O740   1.273       .  A
C724        O737   1.275       .  A
C724        C845   1.466       .  S
O725        C738   1.275       .  A
O725       Cd732   2.059       .  S
O726        C744   1.275       .  A
O726       Cd735   2.067       .  S
O727        C741   1.275       .  A
O727       Cd731   2.058       .  S
O728        C739   1.271       .  A
O728       Cd731   2.048       .  S
Zn729       O740   2.021       .  S
Zn729       O742   2.039       .  S
Zn729       O734   1.917       .  S
O730        C741   1.271       .  A
O730       Cd735   2.050       .  S
Cd731       O733   2.049       .  S
Cd731       O734   1.959       .  S
Cd732       O736   2.078       .  S
Cd732       O745   2.081       .  S
Cd732       O734   1.988       .  S
O733        C743   1.274       .  A
O734       Cd735   1.967       .  S
Cd735       O737   2.063       .  S
O736        C743   1.275       .  A
C738        O742   1.281       .  A
C738        C835   1.475       .  S
C739        C875   1.473       .  S
C741        C862   1.461       .  S
C743        C855   1.470       .  S
C744        O745   1.277       .  A
C744        C885   1.478       .  S
C746       C1155   1.494       .  S
C746        C751   1.414       .  A
C747        C748   1.401       .  A
C747        H752   1.082       .  S
C748        C852   1.473       .  S
C749        C750   1.397       .  A
C749        H753   1.085       .  S
C750        C915   1.478       .  S
C750        C751   1.406       .  A
C751        H754   1.084       .  S
C755       C1145   1.490       .  S
C755       C1916   1.411       .  A
C755        C760   1.414       .  A
C756       C1915   1.411   1_455  A
C756        C757   1.400       .  A
C756        H761   1.083       .  S
C757        C832   1.470       .  S
C757       C1918   1.392       .  A
C758       C1917   1.392       .  A
C758        C759   1.397       .  A
C758        H762   1.086       .  S
C759        C895   1.482       .  S
C759        C760   1.405       .  A
C760        H763   1.083       .  S
C764        C822   1.500       .  S
C764        C765   1.415       .  A
C764       C1929   1.417       .  A
C765        C766   1.407       .  A
C765        H770   1.081       .  S
C766        C935   1.480       .  S
C766        C767   1.394       .  A
C767       C1928   1.391       .  A
C767        H771   1.087       .  S
C768        C872   1.478       .  S
C768       C1927   1.391       .  A
C768        C769   1.405       .  A
C769       C1924   1.417       .  A
C769        H772   1.082       .  S
C773        C812   1.494       .  S
C773        C774   1.407       .  A
C773        C778   1.417       .  A
C774        C775   1.399       .  A
C774        H779   1.082       .  S
C775        C925   1.474       .  S
C775        C776   1.394       .  A
C776        C777   1.394       .  A
C776        H780   1.085       .  S
C777        C842   1.475       .  S
C777        C778   1.403       .  A
C778        H781   1.082       .  S
C782        C787   1.411       .  A
C783        C784   1.397       .  A
C783        H788   1.084       .  S
C784        C865   1.465       .  S
C785        C786   1.394       .  A
C785        H789   1.085       .  S
C786        C902   1.475       .  S
C786        C787   1.404       .  A
C787        H790   1.084       .  S
C791        H792   1.095       .  S
C791        C797   1.557       .  S
C791        C796   1.544       .  S
C791       C1375   1.530   1_565  S
C793        H794   1.110       .  S
C793        C799   1.537       .  S
C793       C1378   1.552   1_565  S
C793        C800   1.534       .  S
C795       C1371   1.530   1_455  S
C795        C798   1.376       .  D
C795        C975   1.496       .  S
C796        C799   1.378       .  D
C796        C955   1.495       .  S
C797        C800   1.395       .  D
C797        C965   1.528       .  S
C798       C1373   1.552   1_455  S
C798        C815   1.497       .  S
C799        C802   1.500       .  S
C800        C825   1.495       .  S
C801        C806   1.397       .  A
C801        H808   1.069       .  S
C802        C803   1.411       .  A
C803        C804   1.399       .  A
C803       Br810   1.913       .  S
C804        C805   1.403       .  A
C804        H809   1.083       .  S
C806       Br807   1.920       .  S
C811        C812   1.404       .  A
C811        C816   1.396       .  A
C811        H818   1.083       .  S
C812        C813   1.417       .  A
C813        C814   1.398       .  A
C813       Br820   1.923       .  S
C814        C815   1.405       .  A
C814        H819   1.085       .  S
C815        C816   1.412       .  A
C816       Br817   1.907       .  S
C821       C1982   1.410   1_455  A
C821        C826   1.402       .  A
C821        H828   1.082       .  S
C822       C1981   1.410       .  A
C822        C823   1.418       .  A
C823        C824   1.400       .  A
C823       Br830   1.917       .  S
C824        C825   1.403       .  A
C824        H829   1.083       .  S
C825       C1986   1.408       .  A
C826       C1985   1.408       .  A
C826       Br827   1.917       .  S
C831        C832   1.400       .  A
C831        C836   1.394       .  A
C831        H838   1.084       .  S
C832        C833   1.405       .  A
C833        C834   1.402       .  A
C833       Br840   1.916       .  S
C834        C835   1.406       .  A
C834        H839   1.083       .  S
C835        C836   1.410       .  A
C836       Br837   1.918       .  S
C841        C842   1.404       .  A
C841        C846   1.404       .  A
C841        H848   1.083       .  S
C842        C843   1.410       .  A
C843        C844   1.392       .  A
C843       Br850   1.921       .  S
C844        C845   1.398       .  A
C844        H849   1.083       .  S
C845        C846   1.408       .  A
C846       Br847   1.917       .  S
C851        C852   1.405       .  A
C851        C856   1.402       .  A
C851        H858   1.083       .  S
C852        C853   1.407       .  A
C853        C854   1.393       .  A
C853       Br860   1.918       .  S
C854        C855   1.402       .  A
C854        H859   1.084       .  S
C855        C856   1.408       .  A
C856       Br857   1.917       .  S
C861        C862   1.399       .  A
C861        C866   1.388       .  A
C861        H868   1.085       .  S
C862        C863   1.410       .  A
C863        C864   1.398       .  A
C863       Br870   1.919       .  S
C864        C865   1.401       .  A
C864        H869   1.085       .  S
C865        C866   1.408       .  A
C866       Br867   1.922       .  S
C871        C872   1.406       .  A
C871        C876   1.400       .  A
C871        H878   1.081       .  S
C872        C873   1.410       .  A
C873        C874   1.400       .  A
C873       Br880   1.920       .  S
C874        C875   1.404       .  A
C874        H879   1.081       .  S
C875        C876   1.406       .  A
C876       Br877   1.918       .  S
C881        C882   1.400       .  A
C881        C886   1.397       .  A
C881        H888   1.084       .  S
C882        C883   1.407       .  A
C883        C884   1.401       .  A
C883       Br890   1.917       .  S
C884        C885   1.404       .  A
C884        H889   1.084       .  S
C885        C886   1.413       .  A
C886       Br887   1.920       .  S
C891        C892   1.411       .  A
C891        C896   1.405       .  A
C891        H898   1.084       .  S
C892        C893   1.420       .  A
C893        C894   1.391       .  A
C893       Br900   1.927       .  S
C894        C895   1.400       .  A
C894        H899   1.085       .  S
C895        C896   1.407       .  A
C896       Br897   1.918       .  S
C901        C902   1.402       .  A
C901        C906   1.398       .  A
C901        H908   1.083       .  S
C902        C903   1.410       .  A
C903        C904   1.399       .  A
C903       Br910   1.919       .  S
C904        C905   1.402       .  A
C904        H909   1.083       .  S
C905        C906   1.410       .  A
C906       Br907   1.921       .  S
C911        C912   1.404       .  A
C911        C916   1.404       .  A
C911        H918   1.084       .  S
C912        C913   1.413       .  A
C913        C914   1.397       .  A
C913       Br920   1.913       .  S
C914        C915   1.398       .  A
C914        H919   1.085       .  S
C915        C916   1.410       .  A
C916       Br917   1.917       .  S
C921        C922   1.404       .  A
C921        C926   1.395       .  A
C921        H928   1.076       .  S
C922        C923   1.408       .  A
C923        C924   1.395       .  A
C923       Br930   1.920       .  S
C924        C925   1.405       .  A
C924        H929   1.081       .  S
C925        C926   1.408       .  A
C926       Br927   1.922       .  S
C931        C932   1.403       .  A
C931        C936   1.402       .  A
C931        H938   1.084       .  S
C932        C933   1.406       .  A
C933        C934   1.393       .  A
C933       Br940   1.922       .  S
C934        C935   1.405       .  A
C934        H939   1.085       .  S
C935        C936   1.410       .  A
C936       Br937   1.915       .  S
C941        C942   1.405       .  A
C941        C946   1.400       .  A
C941        H948   1.083       .  S
C942        C943   1.416       .  A
C943        C944   1.397       .  A
C943       Br950   1.923       .  S
C944        C945   1.399       .  A
C944        H949   1.084       .  S
C945        C946   1.406       .  A
C946       Br947   1.918       .  S
C951        C952   1.406       .  A
C951        C956   1.399       .  A
C951        H958   1.083       .  S
C952        C953   1.412   1_565  A
C953        C954   1.399       .  A
C954        C955   1.406   1_545  A
C955        C956   1.410       .  A
C956       Br957   1.913       .  S
C961       C2122   1.399       .  A
C961        C966   1.403       .  A
C961       H2128   1.088       .  S
C962       C2121   1.399   1_455  A
C962       C2123   1.404       .  A
C963       C2122   1.404       .  A
C963        C964   1.397       .  A
C963      Br2130   1.919       .  S
C964        C965   1.412       .  A
C964        H969   1.085       .  S
C965        C966   1.423       .  A
C966       Br967   1.921       .  S
H968       C2121   1.088       .  S
Br970      C2123   1.919       .  S
C971        C972   1.411       .  A
C971        C976   1.398       .  A
C971        H978   1.082       .  S
C972        C973   1.421       .  A
C973        C974   1.404       .  A
C973       Br980   1.921       .  S
C974        C975   1.402       .  A
C974        H979   1.083       .  S
C975        C976   1.406       .  A
C976       Br977   1.914       .  S
C981        C982   1.404       .  A
C981        C986   1.394       .  A
C981        H988   1.080       .  S
C982        C983   1.407       .  A
C983        C984   1.402       .  A
C983       Br990   1.917       .  S
C984        C985   1.405       .  A
C984        H989   1.081       .  S
C985        C986   1.404       .  A
C986       Br987   1.920       .  S
C991        C992   1.400       .  A
C991        C996   1.396       .  A
C991        H998   1.083       .  S
C992        C993   1.414       .  A
C993        C994   1.398       .  A
C993      Br1000   1.920       .  S
C994        C995   1.401       .  A
C994        H999   1.083       .  S
C995        C996   1.412       .  A
C996       Br997   1.921       .  S
C1001      C1002   1.398       .  A
C1001      C1006   1.395       .  A
C1001      H1008   1.084       .  S
C1002      C1003   1.405       .  A
C1003      C1004   1.404       .  A
C1003     Br1010   1.917       .  S
C1004      C1005   1.410       .  A
C1004      H1009   1.083       .  S
C1005      C1006   1.420       .  A
C1006     Br1007   1.925       .  S
C1011      C1012   1.404       .  A
C1011      C1016   1.401       .  A
C1011      H1018   1.084       .  S
C1012      C1013   1.407       .  A
C1013      C1014   1.390       .  A
C1013     Br1020   1.922   1_554  S
C1014      C1015   1.404       .  A
C1014      H1019   1.084       .  S
C1015      C1016   1.412       .  A
C1016     Br1017   1.919       .  S
C1021      C1022   1.403       .  A
C1021      C1026   1.397       .  A
C1021      H1028   1.083       .  S
C1022      C1023   1.414       .  A
C1023      C1024   1.399       .  A
C1023     Br1030   1.919       .  S
C1024      C1025   1.402       .  A
C1024      H1029   1.083       .  S
C1025      C1026   1.412       .  A
C1026     Br1027   1.922       .  S
C1031      C1032   1.403       .  A
C1031      C1036   1.403       .  A
C1031      H1038   1.085       .  S
C1032      C1033   1.406       .  A
C1033      C1034   1.395       .  A
C1033     Br1040   1.920       .  S
C1034      C1035   1.404       .  A
C1034      H1039   1.083       .  S
C1035      C1036   1.412       .  A
C1036     Br1037   1.919       .  S
C1041      C1042   1.406       .  A
C1041      C1046   1.403       .  A
C1041      H1048   1.083       .  S
C1042      C1043   1.413       .  A
C1043      C1044   1.400       .  A
C1043     Br1050   1.919       .  S
C1044      C1045   1.401       .  A
C1044      H1049   1.084       .  S
C1045      C1046   1.409       .  A
C1046     Br1047   1.918       .  S
C1051      C1052   1.407       .  A
C1051      C1056   1.393       .  A
C1051      H1058   1.084       .  S
C1052      C1053   1.410       .  A
C1053      C1054   1.406       .  A
C1053     Br1060   1.917       .  S
C1054      C1055   1.406       .  A
C1054      H1059   1.083       .  S
C1055      C1056   1.406       .  A
C1056     Br1057   1.922       .  S
C1061      C1062   1.397       .  A
C1061      C1066   1.391       .  A
C1061      H1068   1.085       .  S
C1062      C1063   1.405       .  A
C1063      C1064   1.404       .  A
C1063     Br1070   1.916       .  S
C1064      C1065   1.409       .  A
C1064      H1069   1.083       .  S
C1065      C1066   1.415       .  A
C1066     Br1067   1.918       .  S
C1071      C1072   1.406       .  A
C1071      C1076   1.399       .  A
C1071      H1078   1.082       .  S
C1072      C1073   1.415       .  A
C1073      C1074   1.404       .  A
C1073     Br1080   1.920       .  S
C1074      C1075   1.402       .  A
C1074      H1079   1.082       .  S
C1075      C1076   1.407       .  A
C1076     Br1077   1.920       .  S
C1081      C1082   1.408       .  A
C1081      C1086   1.401       .  A
C1081      H1088   1.083       .  S
C1082      C1083   1.411       .  A
C1083      C1084   1.402       .  A
C1083     Br1090   1.920       .  S
C1084      C1085   1.405       .  A
C1084      H1089   1.076       .  S
C1085      C1086   1.409       .  A
C1086     Br1087   1.920       .  S
C1091      C1092   1.406       .  A
C1091      C1096   1.398       .  A
C1091      H1098   1.084       .  S
C1092      C1093   1.407       .  A
C1093      C1094   1.396       .  A
C1093     Br1100   1.919       .  S
C1094      C1095   1.405       .  A
C1094      H1099   1.085       .  S
C1095      C1096   1.405       .  A
C1096     Br1097   1.918       .  S
C1101      C1102   1.403       .  A
C1101      C1106   1.405       .  A
C1101      H1108   1.083       .  S
C1102      C1103   1.414       .  A
C1103      C1104   1.397       .  A
C1103     Br1110   1.914       .  S
C1104      C1105   1.404       .  A
C1104      H1109   1.083       .  S
C1105      C1106   1.419       .  A
C1106     Br1107   1.920       .  S
C1111      C2272   1.404   1_455  A
C1111      C1116   1.395       .  A
C1111      H1118   1.086       .  S
C1112      C2271   1.404       .  A
C1112      C1113   1.413       .  A
C1113      C1114   1.404       .  A
C1113     Br1120   1.917       .  S
C1114      C2275   1.407       .  A
C1114      H1119   1.086       .  S
C1115      C2274   1.407       .  A
C1115      C1116   1.415   1_655  A
C1116     Br1117   1.924       .  S
C1121      C1126   1.405       .  A
C1121      H1128   1.084       .  S
C1122      C1123   1.413       .  A
C1123      C1124   1.402       .  A
C1123     Br1130   1.921       .  S
C1124      C1125   1.409       .  A
C1124      H1129   1.083       .  S
C1126     Br1127   1.916       .  S
C1131      C1132   1.405       .  A
C1131      C1136   1.400       .  A
C1131      H1138   1.084       .  S
C1132      C1133   1.414       .  A
C1133      C1134   1.400       .  A
C1133     Br1140   1.921       .  S
C1134      C1135   1.406       .  A
C1134      H1139   1.084       .  S
C1135      C1136   1.415       .  A
C1136     Br1137   1.918       .  S
C1141      C2302   1.403   1_455  A
C1141      C1146   1.402       .  A
C1141      H1148   1.084       .  S
C1142      C1749   1.494       .  S
C1142      C2301   1.403       .  A
C1142      C1143   1.413       .  A
C1143      C1144   1.396       .  A
C1143     Br1150   1.914       .  S
C1144      C1145   1.403       .  A
C1144      H1149   1.084       .  S
C1145      C2306   1.415       .  A
C1146      C2305   1.415   1_455  A
C1146     Br1147   1.921       .  S
C1151      C1152   1.400       .  A
C1151      C1156   1.399       .  A
C1151      H1158   1.084       .  S
C1152      C1153   1.411       .  A
C1153      C1154   1.400       .  A
C1154      C1155   1.407       .  A
C1154      H1159   1.083       .  S
C1155      C1156   1.417       .  A
C1156     Br1157   1.918       .  S
C1161      H1162   1.108       .  S
C1161      C1166   1.547   1_565  S
C1161      C1745   1.547       .  S
C1163      H1164   1.110       .  S
C1163      C1749   1.537       .  S
C1163      C1170   1.536       .  S
C1165      C1741   1.547       .  S
C1165      C1168   1.381       .  D
C1165      C1682   1.498       .  S
C1166      C1692   1.499       .  S
C1167      C1170   1.379       .  D
C1167      C1705   1.507       .  S
C1168      C1715   1.499       .  S
C1169      C1743   1.537       .  S
C1170      C2312   1.490       .  S
O1171      C1187   1.280       .  A
O1171     Zn1177   2.047       .  S
C1172      O1188   1.274       .  A
C1172      O1185   1.278       .  A
C1172      C1635   1.474       .  S
O1173      C1186   1.276       .  A
O1173     Cd1180   2.073       .  S
O1174      C1192   1.275       .  A
O1174     Cd1183   2.064   1_556  S
O1175      C1189   1.278       .  A
O1175     Cd1179   2.082       .  S
O1176      C1187   1.271       .  A
O1176     Cd1179   2.038       .  S
Zn1177     O1188   2.024       .  S
Zn1177     O1190   2.046   1_554  S
Zn1177     O1182   1.935       .  S
O1178      C1189   1.277       .  A
O1178     Cd1183   2.084       .  S
Cd1179     O1181   2.081   1_554  S
Cd1179     O1182   1.980       .  S
Cd1180     O1184   2.076       .  S
Cd1180     O1193   2.078       .  S
Cd1180     O1182   1.993   1_556  S
O1181      C1191   1.278       .  A
O1182     Cd1183   1.979       .  S
Cd1183     O1185   2.080       .  S
O1184      C1191   1.275       .  A
C1186      O1190   1.279       .  A
C1186      C1622   1.484       .  S
C1187      C1675   1.469       .  S
C1189      C1665   1.485       .  S
C1191      C1652   1.486       .  S
C1192      O1193   1.276       .  A
C1192      C1645   1.483       .  S
C1194      C1685   1.498       .  S
C1194      C1195   1.418       .  A
C1194      C1199   1.413       .  A
C1195      C1196   1.404       .  A
C1195      H1200   1.083       .  S
C1196      C1612   1.474       .  S
C1196      C1197   1.390       .  A
C1197      C1198   1.394       .  A
C1197      H1201   1.086       .  S
C1198      C1642   1.470       .  S
C1198      C1199   1.403       .  A
C1199      H1202   1.082       .  S
O1203      C1219   1.274       .  A
O1203     Zn1209   2.023       .  S
C1204      O1220   1.277       .  A
C1204      O1217   1.273       .  A
C1204      C1602   1.479       .  S
O1205      C1218   1.278       .  A
O1205     Cd1212   2.085       .  S
O1206      C1224   1.279       .  A
O1206     Cd1215   2.073   1_556  S
O1207      C1221   1.270       .  A
O1207     Cd1211   2.043       .  S
O1208      C1219   1.272       .  A
O1208     Cd1211   2.041       .  S
Zn1209     O1220   2.026       .  S
Zn1209     O1222   2.012   1_554  S
Zn1209     O1214   1.921   1_554  S
O1210      C1221   1.279       .  A
O1210     Cd1215   2.087       .  S
Cd1211     O1213   2.039   1_554  S
Cd1211     O1214   1.961   1_554  S
Cd1212     O1216   2.089       .  S
Cd1212     O1225   2.080       .  S
Cd1212     O1214   1.997       .  S
O1213      C1223   1.272       .  A
O1214     Cd1215   1.976   1_556  S
Cd1215     O1217   2.062       .  S
O1216      C1223   1.276       .  A
C1218      O1222   1.275       .  A
C1218      C1585   1.489       .  S
C1219      C1592   1.468       .  S
C1221      C1572   1.473       .  S
C1223      C1562   1.470       .  S
C1224      O1225   1.278       .  A
C1224      C1615   1.480       .  S
C1226      C1552   1.506       .  S
C1226      C1227   1.419       .  A
C1226      C1231   1.417       .  A
C1227      C1228   1.408       .  A
C1227      H1232   1.079       .  S
C1228      C1632   1.486       .  S
C1228      C1229   1.393       .  A
C1229      C1230   1.392       .  A
C1229      H1233   1.085       .  S
C1230      C1575   1.479       .  S
C1230      C1231   1.403       .  A
C1231      H1234   1.082       .  S
C1235      C1702   1.497       .  S
C1235      C1236   1.413       .  A
C1235      C1820   1.417       .  A
C1236      C1237   1.403       .  A
C1236      H1241   1.084       .  S
C1237      C1582   1.474       .  S
C1237      C1238   1.394       .  A
C1238      C1819   1.394       .  A
C1238      H1242   1.085       .  S
C1239      C1625   1.478       .  S
C1239      C1818   1.394       .  A
C1239      C1240   1.408       .  A
C1240      C1815   1.417   1_545  A
C1240      H1243   1.084       .  S
C1244      C1542   1.478       .  S
C1244      C1249   1.402       .  A
C1245      C1246   1.410       .  A
C1245      H1250   1.083       .  S
C1246      C1662   1.488       .  S
C1247      C1248   1.400       .  A
C1247      H1251   1.085       .  S
C1248      C1595   1.479       .  S
C1248      C1249   1.399       .  A
C1249      H1252   1.084       .  S
C1253      C1695   1.494       .  S
C1253      C1258   1.408       .  A
C1254      C1255   1.408       .  A
C1254      H1259   1.084       .  S
C1255      C1655   1.478       .  S
C1256      C1257   1.395       .  A
C1256      H1260   1.084       .  S
C1257      C1565   1.470       .  S
C1257      C1258   1.397       .  A
C1258      H1261   1.084       .  S
C1262      C1532   1.489       .  S
C1262      C1263   1.412       .  A
C1262      C1847   1.410       .  A
C1263      C1264   1.405       .  A
C1263      H1268   1.084       .  S
C1264      C1605   1.480       .  S
C1264      C1265   1.395       .  A
C1265      C1846   1.393       .  A
C1265      H1269   1.086       .  S
C1266      C1672   1.474       .  S
C1266      C1845   1.393   1_545  A
C1266      C1267   1.403       .  A
C1267      C1842   1.410   1_545  A
C1267      H1270   1.081       .  S
O1271      C1287   1.274       .  A
O1271     Zn1277   2.010       .  S
C1272      O1288   1.275       .  A
C1272      O1285   1.270       .  A
C1272      C1512   1.467       .  S
O1273      C1286   1.278       .  A
O1273     Cd1280   2.095       .  S
O1274      C1292   1.274       .  A
O1274     Cd1283   2.058       .  S
O1275      C1289   1.273       .  A
O1275     Cd1279   2.057       .  S
O1276      C1287   1.277       .  A
O1276     Cd1279   2.075       .  S
Zn1277     O1288   2.026       .  S
Zn1277     O1290   1.983       .  S
Zn1277     O1282   1.911       .  S
O1278      C1289   1.274       .  A
O1278     Cd1283   2.056       .  S
Cd1279     O1281   2.075       .  S
Cd1279     O1282   1.978       .  S
Cd1280     O1284   2.093       .  S
Cd1280     O1293   2.086       .  S
Cd1280     O1282   2.004       .  S
O1281      C1291   1.278       .  A
O1282     Cd1283   1.980       .  S
Cd1283     O1285   2.053       .  S
O1284      C1291   1.279       .  A
C1286      O1290   1.269       .  A
C1286      C1472   1.489       .  S
C1287      C1485   1.471       .  S
C1289      C1502   1.472       .  S
C1291      C1492   1.483       .  S
C1292      O1293   1.278       .  A
C1292      C1522   1.480       .  S
C1294      C1712   1.492       .  S
C1294      C1295   1.414       .  A
C1294      C1299   1.411       .  A
C1295      C1296   1.403       .  A
C1295      H1300   1.083       .  S
C1296      C1462   1.473       .  S
C1296      C1297   1.394       .  A
C1297      C1298   1.394       .  A
C1297      H1301   1.085       .  S
C1298      C1525   1.471       .  S
C1298      C1299   1.403       .  A
C1299      H1302   1.083       .  S
O1303      C1319   1.281       .  A
O1303     Zn1309   2.053       .  S
C1304      O1320   1.273       .  A
C1304      O1317   1.275       .  A
C1304      C1425   1.466       .  S
O1305      C1318   1.275       .  A
O1305     Cd1312   2.059       .  S
O1306      C1324   1.275       .  A
O1306     Cd1315   2.067       .  S
O1307      C1321   1.275       .  A
O1307     Cd1311   2.058       .  S
O1308      C1319   1.271       .  A
O1308     Cd1311   2.048       .  S
Zn1309     O1320   2.021       .  S
Zn1309     O1322   2.039       .  S
Zn1309     O1314   1.917       .  S
O1310      C1321   1.271       .  A
O1310     Cd1315   2.050       .  S
Cd1311     O1313   2.049       .  S
Cd1311     O1314   1.959       .  S
Cd1312     O1316   2.078       .  S
Cd1312     O1325   2.081       .  S
Cd1312     O1314   1.988       .  S
O1313      C1323   1.274       .  A
O1314     Cd1315   1.967       .  S
Cd1315     O1317   2.063       .  S
O1316      C1323   1.275       .  A
C1318      O1322   1.281       .  A
C1318      C1415   1.475       .  S
C1319      C1455   1.473       .  S
C1321      C1442   1.461       .  S
C1323      C1435   1.470       .  S
C1324      O1325   1.277       .  A
C1324      C1465   1.478       .  S
C1326      C1735   1.494       .  S
C1326      C1907   1.410   1_545  A
C1326      C1331   1.414       .  A
C1327      C1906   1.410       .  A
C1327      C1328   1.401       .  A
C1327      H1332   1.082       .  S
C1328      C1432   1.473       .  S
C1328      C1909   1.397       .  A
C1329      C1908   1.397   1_545  A
C1329      C1330   1.397       .  A
C1329      H1333   1.085   1_545  S
C1330      C1495   1.478       .  S
C1330      C1331   1.406       .  A
C1331      H1334   1.084       .  S
C1335      C1725   1.490       .  S
C1335      C1340   1.414       .  A
C1336      C1337   1.400       .  A
C1336      H1341   1.083       .  S
C1337      C1412   1.470       .  S
C1338      C1339   1.397   1_455  A
C1338      H1342   1.086       .  S
C1339      C1475   1.482       .  S
C1339      C1340   1.405       .  A
C1340      H1343   1.083       .  S
C1344      C1402   1.500   1_455  S
C1344      C1345   1.415   1_455  A
C1345      C1346   1.407       .  A
C1345      H1350   1.081       .  S
C1346      C1515   1.480       .  S
C1346      C1347   1.394   1_655  A
C1347      H1351   1.087       .  S
C1348      C1452   1.478       .  S
C1348      C1349   1.405       .  A
C1349      H1352   1.082       .  S
C1353      C1392   1.494       .  S
C1353      C1354   1.407       .  A
C1353      C1358   1.417       .  A
C1354      C1355   1.399       .  A
C1354      H1359   1.082       .  S
C1355      C1505   1.474       .  S
C1355      C1356   1.394       .  A
C1356      C1357   1.394       .  A
C1356      H1360   1.085       .  S
C1357      C1422   1.475       .  S
C1357      C1358   1.403       .  A
C1358      H1361   1.082       .  S
C1362      C1965   1.478       .  S
C1362      C1943   1.404       .  A
C1362      C1367   1.411   1_565  A
C1363      C1942   1.404       .  A
C1363      C1364   1.397       .  A
C1363      H1368   1.084       .  S
C1364      C1445   1.465       .  S
C1364      C1945   1.394       .  A
C1365      C1944   1.394       .  A
C1365      C1366   1.394   1_565  A
C1365      H1369   1.085       .  S
C1366      C1482   1.475       .  S
C1366      C1367   1.404       .  A
C1367      H1370   1.084       .  S
C1371      H1372   1.095       .  S
C1371      C1377   1.557   1_655  S
C1371      C1376   1.544       .  S
C1373      H1374   1.110       .  S
C1373      C1379   1.537       .  S
C1373      C1380   1.534   1_655  S
C1375      C1378   1.376       .  D
C1375      C1555   1.496       .  S
C1376      C1379   1.378       .  D
C1376      C1535   1.495       .  S
C1377      C1380   1.395       .  D
C1377      C1545   1.528       .  S
C1378      C1395   1.497       .  S
C1379      C1382   1.500       .  S
C1380      C1405   1.495       .  S
C1381      C1962   1.398   1_545  A
C1381      C1386   1.397       .  A
C1381      H1388   1.069       .  S
C1382      C1961   1.398       .  A
C1382      C1383   1.411       .  A
C1383      C1384   1.399       .  A
C1383     Br1390   1.913       .  S
C1384      C1385   1.403       .  A
C1384      H1389   1.083       .  S
C1385      C1942   1.478       .  S
C1385      C1966   1.408       .  A
C1386      C1965   1.408   1_545  A
C1386     Br1387   1.920       .  S
C1391      C1392   1.404       .  A
C1391      C1396   1.396       .  A
C1391      H1398   1.083       .  S
C1392      C1393   1.417       .  A
C1393      C1394   1.398       .  A
C1393     Br1400   1.923       .  S
C1394      C1395   1.405       .  A
C1394      H1399   1.085       .  S
C1395      C1396   1.412       .  A
C1396     Br1397   1.907       .  S
C1401      C1406   1.402       .  A
C1401      H1408   1.082       .  S
C1402      C1403   1.418       .  A
C1403      C1404   1.400       .  A
C1403     Br1410   1.917       .  S
C1404      C1405   1.403   1_655  A
C1404      H1409   1.083       .  S
C1406     Br1407   1.917       .  S
C1411      C1412   1.400       .  A
C1411      C1416   1.394       .  A
C1411      H1418   1.084       .  S
C1412      C1413   1.405       .  A
C1413      C1414   1.402       .  A
C1413     Br1420   1.916       .  S
C1414      C1415   1.406       .  A
C1414      H1419   1.083       .  S
C1415      C1416   1.410       .  A
C1416     Br1417   1.918       .  S
C1421      C1422   1.404       .  A
C1421      C1426   1.404       .  A
C1421      H1428   1.083       .  S
C1422      C1423   1.410       .  A
C1423      C1424   1.392       .  A
C1423     Br1430   1.921       .  S
C1424      C1425   1.398       .  A
C1424      H1429   1.083       .  S
C1425      C1426   1.408       .  A
C1426     Br1427   1.917       .  S
C1431      C1432   1.405       .  A
C1431      C1436   1.402       .  A
C1431      H1438   1.083       .  S
C1432      C1433   1.407       .  A
C1433      C1434   1.393       .  A
C1433     Br1440   1.918       .  S
C1434      C1435   1.402       .  A
C1434      H1439   1.084       .  S
C1435      C1436   1.408       .  A
C1436     Br1437   1.917       .  S
C1441      C1442   1.399       .  A
C1441      C1446   1.388       .  A
C1441      H1448   1.085       .  S
C1442      C1443   1.410       .  A
C1443      C1444   1.398       .  A
C1443     Br1450   1.919       .  S
C1444      C1445   1.401       .  A
C1444      H1449   1.085       .  S
C1445      C1446   1.408       .  A
C1446     Br1447   1.922       .  S
C1451      C1452   1.406       .  A
C1451      C1456   1.400       .  A
C1451      H1458   1.081       .  S
C1452      C1453   1.410       .  A
C1453      C1454   1.400       .  A
C1453     Br1460   1.920       .  S
C1454      C1455   1.404       .  A
C1454      H1459   1.081       .  S
C1455      C1456   1.406       .  A
C1456     Br1457   1.918       .  S
C1461      C1462   1.400       .  A
C1461      C1466   1.397       .  A
C1461      H1468   1.084       .  S
C1462      C1463   1.407       .  A
C1463      C1464   1.401       .  A
C1463     Br1470   1.917       .  S
C1464      C1465   1.404       .  A
C1464      H1469   1.084       .  S
C1465      C1466   1.413       .  A
C1466     Br1467   1.920       .  S
C1471      C1472   1.411       .  A
C1471      C1476   1.405       .  A
C1471      H1478   1.084       .  S
C1472      C1473   1.420       .  A
C1473      C1474   1.391       .  A
C1473     Br1480   1.927       .  S
C1474      C1475   1.400       .  A
C1474      H1479   1.085       .  S
C1475      C1476   1.407       .  A
C1476     Br1477   1.918       .  S
C1481      C1482   1.402       .  A
C1481      C1486   1.398       .  A
C1481      H1488   1.083       .  S
C1482      C1483   1.410       .  A
C1483      C1484   1.399       .  A
C1483     Br1490   1.919       .  S
C1484      C1485   1.402       .  A
C1484      H1489   1.083       .  S
C1485      C1486   1.410       .  A
C1486     Br1487   1.921       .  S
C1491      C1492   1.404       .  A
C1491      C1496   1.404       .  A
C1491      H1498   1.084       .  S
C1492      C1493   1.413       .  A
C1493      C1494   1.397       .  A
C1493     Br1500   1.913       .  S
C1494      C1495   1.398       .  A
C1494      H1499   1.085       .  S
C1495      C1496   1.410       .  A
C1496     Br1497   1.917       .  S
C1501      C1502   1.404       .  A
C1501      C1506   1.395       .  A
C1501      H1508   1.076       .  S
C1502      C1503   1.408       .  A
C1503      C1504   1.395       .  A
C1503     Br1510   1.920       .  S
C1504      C1505   1.405       .  A
C1504      H1509   1.081       .  S
C1505      C1506   1.408       .  A
C1506     Br1507   1.922       .  S
C1511      C1512   1.403       .  A
C1511      C1516   1.402       .  A
C1511      H1518   1.084       .  S
C1512      C1513   1.406       .  A
C1513      C1514   1.393       .  A
C1513     Br1520   1.922       .  S
C1514      C1515   1.405       .  A
C1514      H1519   1.085       .  S
C1515      C1516   1.410       .  A
C1516     Br1517   1.915       .  S
C1521      C1522   1.405       .  A
C1521      C1526   1.400       .  A
C1521      H1528   1.083       .  S
C1522      C1523   1.416       .  A
C1523      C1524   1.397       .  A
C1523     Br1530   1.923       .  S
C1524      C1525   1.399       .  A
C1524      H1529   1.084       .  S
C1525      C1526   1.406       .  A
C1526     Br1527   1.918       .  S
C1531      C1532   1.406       .  A
C1531      C1536   1.399       .  A
C1531      H1538   1.083       .  S
C1532      C1533   1.412       .  A
C1533      C1534   1.399       .  A
C1533     Br2120   1.920       .  S
C1534      C1535   1.406       .  A
C1534      H2119   1.083       .  S
C1535      C1536   1.410       .  A
C1536     Br1537   1.913       .  S
H1539      C2114   1.083       .  S
Br1540     C2113   1.920       .  S
C1541      C1546   1.403   1_655  A
C1543      C1544   1.397       .  A
C1544      C1545   1.412       .  A
C1544      H1549   1.085       .  S
C1545      C1546   1.423       .  A
C1546     Br1547   1.921       .  S
C1551      C1552   1.411       .  A
C1551      C1556   1.398       .  A
C1551      H1558   1.082       .  S
C1552      C1553   1.421       .  A
C1553      C1554   1.404       .  A
C1553     Br1560   1.921       .  S
C1554      C1555   1.402       .  A
C1554      H1559   1.083       .  S
C1555      C1556   1.406       .  A
C1556     Br1557   1.914       .  S
C1561      C1562   1.404       .  A
C1561      C1566   1.394       .  A
C1561      H1568   1.080       .  S
C1562      C1563   1.407       .  A
C1563      C1564   1.402       .  A
C1563     Br1570   1.917       .  S
C1564      C1565   1.405       .  A
C1564      H1569   1.081       .  S
C1565      C1566   1.404       .  A
C1566     Br1567   1.920       .  S
C1571      C1572   1.400       .  A
C1571      C1576   1.396       .  A
C1571      H1578   1.083       .  S
C1572      C1573   1.414       .  A
C1573      C1574   1.398       .  A
C1573     Br1580   1.920       .  S
C1574      C1575   1.401       .  A
C1574      H1579   1.083       .  S
C1575      C1576   1.412       .  A
C1576     Br1577   1.921       .  S
C1581      C1582   1.398       .  A
C1581      C1586   1.395       .  A
C1581      H1588   1.084       .  S
C1582      C1583   1.405       .  A
C1583      C1584   1.404       .  A
C1583     Br1590   1.917       .  S
C1584      C1585   1.410       .  A
C1584      H1589   1.083       .  S
C1585      C1586   1.420       .  A
C1586     Br1587   1.925       .  S
C1591      C1592   1.404       .  A
C1591      C1596   1.401       .  A
C1591      H1598   1.084       .  S
C1592      C1593   1.407       .  A
C1593      C1594   1.390       .  A
C1593     Br1600   1.922   1_554  S
C1594      C1595   1.404       .  A
C1594      H1599   1.084       .  S
C1595      C1596   1.412       .  A
C1596     Br1597   1.919       .  S
C1601      C1602   1.403       .  A
C1601      C1606   1.397       .  A
C1601      H1608   1.083       .  S
C1602      C1603   1.414       .  A
C1603      C1604   1.399       .  A
C1603     Br1610   1.919       .  S
C1604      C1605   1.402       .  A
C1604      H1609   1.083       .  S
C1605      C1606   1.412       .  A
C1606     Br1607   1.922       .  S
C1611      C1612   1.403       .  A
C1611      C1616   1.403       .  A
C1611      H1618   1.085       .  S
C1612      C1613   1.406       .  A
C1613      C1614   1.395       .  A
C1613     Br1620   1.920       .  S
C1614      C1615   1.404       .  A
C1614      H1619   1.083       .  S
C1615      C1616   1.412       .  A
C1616     Br1617   1.919       .  S
C1621      C1622   1.406       .  A
C1621      C1626   1.403       .  A
C1621      H1628   1.083       .  S
C1622      C1623   1.413       .  A
C1623      C1624   1.400       .  A
C1623     Br1630   1.919       .  S
C1624      C1625   1.401       .  A
C1624      H1629   1.084       .  S
C1625      C1626   1.409       .  A
C1626     Br1627   1.918       .  S
C1631      C1632   1.407       .  A
C1631      C1636   1.393       .  A
C1631      H1638   1.084       .  S
C1632      C1633   1.410       .  A
C1633      C1634   1.406       .  A
C1633     Br1640   1.917       .  S
C1634      C1635   1.406       .  A
C1634      H1639   1.083       .  S
C1635      C1636   1.406       .  A
C1636     Br1637   1.922       .  S
C1641      C1642   1.397       .  A
C1641      C1646   1.391       .  A
C1641      H1648   1.085       .  S
C1642      C1643   1.405       .  A
C1643      C1644   1.404       .  A
C1643     Br1650   1.916       .  S
C1644      C1645   1.409       .  A
C1644      H1649   1.084       .  S
C1645      C1646   1.415       .  A
C1646     Br1647   1.918       .  S
C1651      C1652   1.406       .  A
C1651      C1656   1.399       .  A
C1651      H1658   1.082       .  S
C1652      C1653   1.415       .  A
C1653      C1654   1.404       .  A
C1653     Br1660   1.920       .  S
C1654      C1655   1.402       .  A
C1654      H1659   1.082       .  S
C1655      C1656   1.407       .  A
C1656     Br1657   1.920       .  S
C1661      C1662   1.408       .  A
C1661      C1666   1.401       .  A
C1661      H1668   1.083       .  S
C1662      C1663   1.411       .  A
C1663      C1664   1.402       .  A
C1663     Br1670   1.920       .  S
C1664      C1665   1.405       .  A
C1664      H1669   1.076       .  S
C1665      C1666   1.409       .  A
C1666     Br1667   1.920       .  S
C1671      C1672   1.406       .  A
C1671      C1676   1.398       .  A
C1671      H1678   1.084       .  S
C1672      C1673   1.407       .  A
C1673      C1674   1.396       .  A
C1673     Br1680   1.919       .  S
C1674      C1675   1.405       .  A
C1674      H1679   1.085       .  S
C1675      C1676   1.405       .  A
C1676     Br1677   1.918       .  S
C1681      C1682   1.403       .  A
C1681      C1686   1.405       .  A
C1681      H1688   1.083       .  S
C1682      C1683   1.414       .  A
C1683      C1684   1.397       .  A
C1683     Br1690   1.914       .  S
C1684      C1685   1.404       .  A
C1684      H1689   1.083       .  S
C1685      C1686   1.419       .  A
C1686     Br1687   1.920       .  S
C1691      C1696   1.395       .  A
C1691      H1698   1.086       .  S
C1692      C1693   1.413       .  A
C1693      C1694   1.404       .  A
C1693     Br1700   1.917       .  S
C1694      H1699   1.086       .  S
C1695      C1696   1.415       .  A
C1696     Br1697   1.924       .  S
C1701      C2282   1.407   1_545  A
C1701      C1706   1.405       .  A
C1701      H1708   1.084       .  S
C1702      C2281   1.407       .  A
C1702      C1703   1.413       .  A
C1703      C1704   1.402       .  A
C1703     Br1710   1.921       .  S
C1704      C1705   1.409       .  A
C1704      H1709   1.083       .  S
C1705      C2286   1.415       .  A
C1706      C2285   1.415   1_545  A
C1706     Br1707   1.916       .  S
C1711      C1712   1.405       .  A
C1711      C1716   1.400       .  A
C1711      H1718   1.084       .  S
C1712      C1713   1.414       .  A
C1713      C1714   1.400       .  A
C1713     Br1720   1.921       .  S
C1714      C1715   1.406       .  A
C1714      H1719   1.084       .  S
C1715      C1716   1.415       .  A
C1716     Br1717   1.918       .  S
C1721      C1726   1.402       .  A
C1721      H1728   1.084       .  S
C1722      C1723   1.413       .  A
C1723      C1724   1.396       .  A
C1723     Br1730   1.914       .  S
C1724      C1725   1.403       .  A
C1724      H1729   1.084       .  S
C1726     Br1727   1.921       .  S
C1731      C1732   1.400   1_565  A
C1731      C1736   1.399       .  A
C1731      H1738   1.084       .  S
C1732      C1750   1.490       .  S
C1732      C1733   1.411       .  A
C1733      C1734   1.400       .  A
C1733     Br2320   1.918       .  S
C1734      C1735   1.407       .  A
C1734      H1739   1.083       .  S
C1735      C1736   1.417   1_545  A
C1736     Br1737   1.918       .  S
Br1740     C2313   1.918       .  S
C1741      H1742   1.108       .  S
C1741      C1746   1.547       .  S
C1743      H1744   1.110       .  S
C1743      C1750   1.536       .  S
C1745      C1748   1.381       .  D
C1745      C2262   1.498       .  S
C1746      C2272   1.499       .  S
C1747      C1750   1.379       .  D
C1747      C2285   1.507   1_545  S
C1748      C2295   1.499       .  S
O1751      C1767   1.280       .  A
O1751     Zn1757   2.047       .  S
C1752      O1768   1.274       .  A
C1752      O1765   1.278       .  A
C1752      C2215   1.474       .  S
O1753      C1766   1.276       .  A
O1753     Cd1760   2.073       .  S
O1754      C1772   1.275       .  A
O1754     Cd1763   2.064   1_556  S
O1755      C1769   1.278       .  A
O1755     Cd1759   2.082       .  S
O1756      C1767   1.271       .  A
O1756     Cd1759   2.038       .  S
Zn1757     O1768   2.024       .  S
Zn1757     O1770   2.046   1_554  S
Zn1757     O1762   1.935       .  S
O1758      C1769   1.277       .  A
O1758     Cd1763   2.084       .  S
Cd1759     O1761   2.081   1_554  S
Cd1759     O1762   1.980       .  S
Cd1760     O1764   2.076       .  S
Cd1760     O1773   2.078       .  S
Cd1760     O1762   1.993   1_556  S
O1761      C1771   1.278       .  A
O1762     Cd1763   1.979       .  S
Cd1763     O1765   2.080       .  S
O1764      C1771   1.275       .  A
C1766      O1770   1.279       .  A
C1766      C2202   1.484       .  S
C1767      C2255   1.469       .  S
C1769      C2245   1.485       .  S
C1771      C2232   1.486       .  S
C1772      O1773   1.276       .  A
C1772      C2225   1.483       .  S
C1774      C2265   1.498       .  S
C1774      C1775   1.418       .  A
C1774      C1779   1.413       .  A
C1775      C1776   1.404       .  A
C1775      H1780   1.083       .  S
C1776      C2192   1.474       .  S
C1776      C1777   1.390       .  A
C1777      C1778   1.394       .  A
C1777      H1781   1.086       .  S
C1778      C2222   1.470       .  S
C1778      C1779   1.403       .  A
C1779      H1782   1.082       .  S
O1783      C1799   1.274       .  A
O1783     Zn1789   2.023       .  S
C1784      O1800   1.277       .  A
C1784      O1797   1.273       .  A
C1784      C2182   1.479       .  S
O1785      C1798   1.278       .  A
O1785     Cd1792   2.085       .  S
O1786      C1804   1.279       .  A
O1786     Cd1795   2.073   1_556  S
O1787      C1801   1.270       .  A
O1787     Cd1791   2.043       .  S
O1788      C1799   1.272       .  A
O1788     Cd1791   2.041       .  S
Zn1789     O1800   2.026       .  S
Zn1789     O1802   2.012   1_554  S
Zn1789     O1794   1.921   1_554  S
O1790      C1801   1.279       .  A
O1790     Cd1795   2.087       .  S
Cd1791     O1793   2.039   1_554  S
Cd1791     O1794   1.961   1_554  S
Cd1792     O1796   2.089       .  S
Cd1792     O1805   2.080       .  S
Cd1792     O1794   1.997       .  S
O1793      C1803   1.272       .  A
O1794     Cd1795   1.976   1_556  S
Cd1795     O1797   2.062       .  S
O1796      C1803   1.276       .  A
C1798      O1802   1.275       .  A
C1798      C2165   1.489       .  S
C1799      C2172   1.468       .  S
C1801      C2152   1.473       .  S
C1803      C2142   1.470       .  S
C1804      O1805   1.278       .  A
C1804      C2195   1.480       .  S
C1806      C2132   1.506       .  S
C1806      C1807   1.419       .  A
C1806      C1811   1.417       .  A
C1807      C1808   1.408       .  A
C1807      H1812   1.079       .  S
C1808      C2212   1.486       .  S
C1808      C1809   1.393       .  A
C1809      C1810   1.392       .  A
C1809      H1813   1.085       .  S
C1810      C2155   1.479       .  S
C1810      C1811   1.403       .  A
C1811      H1814   1.083       .  S
C1815      C2282   1.497       .  S
C1815      C1816   1.413       .  A
C1816      C1817   1.403       .  A
C1816      H1821   1.084       .  S
C1817      C2162   1.474       .  S
C1817      C1818   1.394   1_565  A
C1818      H1822   1.085       .  S
C1819      C2205   1.478       .  S
C1819      C1820   1.408       .  A
C1820      H1823   1.084       .  S
C1824      C2122   1.478       .  S
C1824      C1829   1.402       .  A
C1825      C1826   1.410       .  A
C1825      H1830   1.083       .  S
C1826      C2242   1.488       .  S
C1827      C1828   1.400       .  A
C1827      H1831   1.085       .  S
C1828      C2175   1.479       .  S
C1828      C1829   1.399       .  A
C1829      H1832   1.084       .  S
C1833      C2275   1.494       .  S
C1833      C1838   1.408       .  A
C1834      C1835   1.408       .  A
C1834      H1839   1.084       .  S
C1835      C2235   1.478       .  S
C1836      C1837   1.395       .  A
C1836      H1840   1.084       .  S
C1837      C2145   1.470       .  S
C1837      C1838   1.397       .  A
C1838      H1841   1.084       .  S
C1842      C2112   1.489       .  S
C1842      C1843   1.412       .  A
C1843      C1844   1.405       .  A
C1843      H1848   1.084       .  S
C1844      C2185   1.480       .  S
C1844      C1845   1.395       .  A
C1845      H1849   1.086       .  S
C1846      C2252   1.474       .  S
C1846      C1847   1.403       .  A
C1847      H1850   1.081       .  S
O1851      C1867   1.274       .  A
O1851     Zn1857   2.010       .  S
C1852      O1868   1.275       .  A
C1852      O1865   1.270       .  A
C1852      C2092   1.467       .  S
O1853      C1866   1.278       .  A
O1853     Cd1860   2.095       .  S
O1854      C1872   1.274       .  A
O1854     Cd1863   2.058       .  S
O1855      C1869   1.273       .  A
O1855     Cd1859   2.057       .  S
O1856      C1867   1.277       .  A
O1856     Cd1859   2.075       .  S
Zn1857     O1868   2.026       .  S
Zn1857     O1870   1.983       .  S
Zn1857     O1862   1.911       .  S
O1858      C1869   1.274       .  A
O1858     Cd1863   2.056       .  S
Cd1859     O1861   2.075       .  S
Cd1859     O1862   1.978       .  S
Cd1860     O1864   2.093       .  S
Cd1860     O1873   2.086       .  S
Cd1860     O1862   2.004       .  S
O1861      C1871   1.278       .  A
O1862     Cd1863   1.980       .  S
Cd1863     O1865   2.053       .  S
O1864      C1871   1.279       .  A
C1866      O1870   1.269       .  A
C1866      C2052   1.489       .  S
C1867      C2065   1.471       .  S
C1869      C2082   1.472       .  S
C1871      C2072   1.483       .  S
C1872      O1873   1.278       .  A
C1872      C2102   1.480       .  S
C1874      C2292   1.492       .  S
C1874      C1875   1.414       .  A
C1874      C1879   1.411       .  A
C1875      C1876   1.403       .  A
C1875      H1880   1.083       .  S
C1876      C2042   1.473       .  S
C1876      C1877   1.394       .  A
C1877      C1878   1.394       .  A
C1877      H1881   1.085       .  S
C1878      C2105   1.471       .  S
C1878      C1879   1.403       .  A
C1879      H1882   1.083       .  S
O1883      C1899   1.281       .  A
O1883     Zn1889   2.053       .  S
C1884      O1900   1.273       .  A
C1884      O1897   1.275       .  A
C1884      C2005   1.466       .  S
O1885      C1898   1.275       .  A
O1885     Cd1892   2.059       .  S
O1886      C1904   1.275       .  A
O1886     Cd1895   2.067       .  S
O1887      C1901   1.275       .  A
O1887     Cd1891   2.058       .  S
O1888      C1899   1.271       .  A
O1888     Cd1891   2.048       .  S
Zn1889     O1900   2.021       .  S
Zn1889     O1902   2.039       .  S
Zn1889     O1894   1.917       .  S
O1890      C1901   1.271       .  A
O1890     Cd1895   2.050       .  S
Cd1891     O1893   2.049       .  S
Cd1891     O1894   1.959       .  S
Cd1892     O1896   2.078       .  S
Cd1892     O1905   2.081       .  S
Cd1892     O1894   1.988       .  S
O1893      C1903   1.274       .  A
O1894     Cd1895   1.967       .  S
Cd1895     O1897   2.063       .  S
O1896      C1903   1.275       .  A
C1898      O1902   1.281       .  A
C1898      C1995   1.475       .  S
C1899      C2035   1.473       .  S
C1901      C2022   1.461       .  S
C1903      C2015   1.470       .  S
C1904      O1905   1.277       .  A
C1904      C2045   1.478       .  S
C1906      C2315   1.494       .  S
C1906      C1911   1.414       .  A
C1907      C1908   1.401       .  A
C1907      H1912   1.082       .  S
C1908      C2012   1.473       .  S
C1909      C1910   1.397       .  A
C1909      H1913   1.085       .  S
C1910      C2075   1.478       .  S
C1910      C1911   1.406       .  A
C1911      H1914   1.084       .  S
C1915      C2305   1.490       .  S
C1915      C1920   1.414       .  A
C1916      C1917   1.400       .  A
C1916      H1921   1.083       .  S
C1917      C1992   1.470       .  S
C1918      C1919   1.397   1_455  A
C1918      H1922   1.086       .  S
C1919      C2055   1.482       .  S
C1919      C1920   1.405       .  A
C1920      H1923   1.083       .  S
C1924      C1982   1.500   1_455  S
C1924      C1925   1.415   1_455  A
C1925      C1926   1.407       .  A
C1925      H1930   1.081       .  S
C1926      C2095   1.480       .  S
C1926      C1927   1.394   1_655  A
C1927      H1931   1.087       .  S
C1928      C2032   1.478       .  S
C1928      C1929   1.405       .  A
C1929      H1932   1.082       .  S
C1933      C1972   1.494       .  S
C1933      C1934   1.407       .  A
C1933      C1938   1.417       .  A
C1934      C1935   1.399       .  A
C1934      H1939   1.082       .  S
C1935      C2085   1.474       .  S
C1935      C1936   1.394       .  A
C1936      C1937   1.394       .  A
C1936      H1940   1.085       .  S
C1937      C2002   1.475       .  S
C1937      C1938   1.403       .  A
C1938      H1941   1.082       .  S
C1942      C1947   1.411       .  A
C1943      C1944   1.397       .  A
C1943      H1948   1.084       .  S
C1944      C2025   1.465       .  S
C1945      C1946   1.394       .  A
C1945      H1949   1.085       .  S
C1946      C2062   1.475       .  S
C1946      C1947   1.404       .  A
C1947      H1950   1.084       .  S
C1951      H1952   1.095       .  S
C1951      C1957   1.557   1_655  S
C1951      C1956   1.544       .  S
C1953      H1954   1.110       .  S
C1953      C1959   1.537       .  S
C1953      C1960   1.534   1_655  S
C1955      C1958   1.376       .  D
C1955      C2135   1.496       .  S
C1956      C1959   1.378       .  D
C1956      C2115   1.495       .  S
C1957      C1960   1.395       .  D
C1957      C2125   1.528       .  S
C1958      C1975   1.497       .  S
C1959      C1962   1.500       .  S
C1960      C1985   1.495       .  S
C1961      C1966   1.397       .  A
C1961      H1968   1.069       .  S
C1962      C1963   1.411       .  A
C1963      C1964   1.399       .  A
C1963     Br1970   1.913       .  S
C1964      C1965   1.403       .  A
C1964      H1969   1.083       .  S
C1966     Br1967   1.920       .  S
C1971      C1972   1.404       .  A
C1971      C1976   1.396       .  A
C1971      H1978   1.083       .  S
C1972      C1973   1.417       .  A
C1973      C1974   1.398       .  A
C1973     Br1980   1.923       .  S
C1974      C1975   1.405       .  A
C1974      H1979   1.085       .  S
C1975      C1976   1.412       .  A
C1976     Br1977   1.907       .  S
C1981      C1986   1.402       .  A
C1981      H1988   1.082       .  S
C1982      C1983   1.418       .  A
C1983      C1984   1.400       .  A
C1983     Br1990   1.917       .  S
C1984      C1985   1.403   1_655  A
C1984      H1989   1.083       .  S
C1986     Br1987   1.917       .  S
C1991      C1992   1.400       .  A
C1991      C1996   1.394       .  A
C1991      H1998   1.084       .  S
C1992      C1993   1.405       .  A
C1993      C1994   1.402       .  A
C1993     Br2000   1.916       .  S
C1994      C1995   1.406       .  A
C1994      H1999   1.083       .  S
C1995      C1996   1.410       .  A
C1996     Br1997   1.918       .  S
C2001      C2002   1.404       .  A
C2001      C2006   1.404       .  A
C2001      H2008   1.083       .  S
C2002      C2003   1.410       .  A
C2003      C2004   1.392       .  A
C2003     Br2010   1.921       .  S
C2004      C2005   1.398       .  A
C2004      H2009   1.083       .  S
C2005      C2006   1.408       .  A
C2006     Br2007   1.917       .  S
C2011      C2012   1.405       .  A
C2011      C2016   1.402       .  A
C2011      H2018   1.083       .  S
C2012      C2013   1.407       .  A
C2013      C2014   1.393       .  A
C2013     Br2020   1.918       .  S
C2014      C2015   1.402       .  A
C2014      H2019   1.084       .  S
C2015      C2016   1.408       .  A
C2016     Br2017   1.917       .  S
C2021      C2022   1.399       .  A
C2021      C2026   1.388       .  A
C2021      H2028   1.085       .  S
C2022      C2023   1.410       .  A
C2023      C2024   1.398       .  A
C2023     Br2030   1.919       .  S
C2024      C2025   1.401       .  A
C2024      H2029   1.085       .  S
C2025      C2026   1.408       .  A
C2026     Br2027   1.922       .  S
C2031      C2032   1.406       .  A
C2031      C2036   1.400       .  A
C2031      H2038   1.081       .  S
C2032      C2033   1.410       .  A
C2033      C2034   1.400       .  A
C2033     Br2040   1.920       .  S
C2034      C2035   1.404       .  A
C2034      H2039   1.081       .  S
C2035      C2036   1.406       .  A
C2036     Br2037   1.918       .  S
C2041      C2042   1.400       .  A
C2041      C2046   1.397       .  A
C2041      H2048   1.084       .  S
C2042      C2043   1.407       .  A
C2043      C2044   1.401       .  A
C2043     Br2050   1.917       .  S
C2044      C2045   1.404       .  A
C2044      H2049   1.084       .  S
C2045      C2046   1.413       .  A
C2046     Br2047   1.920       .  S
C2051      C2052   1.411       .  A
C2051      C2056   1.405       .  A
C2051      H2058   1.084       .  S
C2052      C2053   1.420       .  A
C2053      C2054   1.391       .  A
C2053     Br2060   1.927       .  S
C2054      C2055   1.400       .  A
C2054      H2059   1.085       .  S
C2055      C2056   1.407       .  A
C2056     Br2057   1.918       .  S
C2061      C2062   1.402       .  A
C2061      C2066   1.398       .  A
C2061      H2068   1.083       .  S
C2062      C2063   1.410       .  A
C2063      C2064   1.399       .  A
C2063     Br2070   1.919       .  S
C2064      C2065   1.402       .  A
C2064      H2069   1.083       .  S
C2065      C2066   1.410       .  A
C2066     Br2067   1.921       .  S
C2071      C2072   1.404       .  A
C2071      C2076   1.404       .  A
C2071      H2078   1.084       .  S
C2072      C2073   1.413       .  A
C2073      C2074   1.397       .  A
C2073     Br2080   1.913       .  S
C2074      C2075   1.398       .  A
C2074      H2079   1.085       .  S
C2075      C2076   1.410       .  A
C2076     Br2077   1.917       .  S
C2081      C2082   1.404       .  A
C2081      C2086   1.395       .  A
C2081      H2088   1.076       .  S
C2082      C2083   1.408       .  A
C2083      C2084   1.395       .  A
C2083     Br2090   1.920       .  S
C2084      C2085   1.405       .  A
C2084      H2089   1.081       .  S
C2085      C2086   1.408       .  A
C2086     Br2087   1.922       .  S
C2091      C2092   1.403       .  A
C2091      C2096   1.402       .  A
C2091      H2098   1.084       .  S
C2092      C2093   1.406       .  A
C2093      C2094   1.393       .  A
C2093     Br2100   1.922       .  S
C2094      C2095   1.405       .  A
C2094      H2099   1.085       .  S
C2095      C2096   1.410       .  A
C2096     Br2097   1.915       .  S
C2101      C2102   1.405       .  A
C2101      C2106   1.400       .  A
C2101      H2108   1.083       .  S
C2102      C2103   1.416       .  A
C2103      C2104   1.397       .  A
C2103     Br2110   1.923       .  S
C2104      C2105   1.399       .  A
C2104      H2109   1.084       .  S
C2105      C2106   1.406       .  A
C2106     Br2107   1.918       .  S
C2111      C2112   1.406       .  A
C2111      C2116   1.399       .  A
C2111      H2118   1.083       .  S
C2112      C2113   1.412   1_565  A
C2113      C2114   1.399       .  A
C2114      C2115   1.406   1_545  A
C2115      C2116   1.410       .  A
C2116     Br2117   1.913       .  S
C2121      C2126   1.403   1_655  A
C2123      C2124   1.397       .  A
C2124      C2125   1.412       .  A
C2124      H2129   1.085       .  S
C2125      C2126   1.423       .  A
C2126     Br2127   1.921       .  S
C2131      C2132   1.411       .  A
C2131      C2136   1.398       .  A
C2131      H2138   1.082       .  S
C2132      C2133   1.421       .  A
C2133      C2134   1.404       .  A
C2133     Br2140   1.921       .  S
C2134      C2135   1.402       .  A
C2134      H2139   1.083       .  S
C2135      C2136   1.406       .  A
C2136     Br2137   1.914       .  S
C2141      C2142   1.404       .  A
C2141      C2146   1.394       .  A
C2141      H2148   1.080       .  S
C2142      C2143   1.407       .  A
C2143      C2144   1.402       .  A
C2143     Br2150   1.917       .  S
C2144      C2145   1.405       .  A
C2144      H2149   1.081       .  S
C2145      C2146   1.404       .  A
C2146     Br2147   1.920       .  S
C2151      C2152   1.400       .  A
C2151      C2156   1.396       .  A
C2151      H2158   1.083       .  S
C2152      C2153   1.414       .  A
C2153      C2154   1.398       .  A
C2153     Br2160   1.920       .  S
C2154      C2155   1.401       .  A
C2154      H2159   1.083       .  S
C2155      C2156   1.412       .  A
C2156     Br2157   1.921       .  S
C2161      C2162   1.398       .  A
C2161      C2166   1.395       .  A
C2161      H2168   1.084       .  S
C2162      C2163   1.405       .  A
C2163      C2164   1.404       .  A
C2163     Br2170   1.917       .  S
C2164      C2165   1.410       .  A
C2164      H2169   1.083       .  S
C2165      C2166   1.420       .  A
C2166     Br2167   1.925       .  S
C2171      C2172   1.404       .  A
C2171      C2176   1.401       .  A
C2171      H2178   1.084       .  S
C2172      C2173   1.407       .  A
C2173      C2174   1.390       .  A
C2173     Br2180   1.922   1_554  S
C2174      C2175   1.404       .  A
C2174      H2179   1.084       .  S
C2175      C2176   1.412       .  A
C2176     Br2177   1.919       .  S
C2181      C2182   1.403       .  A
C2181      C2186   1.397       .  A
C2181      H2188   1.083       .  S
C2182      C2183   1.414       .  A
C2183      C2184   1.399       .  A
C2183     Br2190   1.919       .  S
C2184      C2185   1.402       .  A
C2184      H2189   1.083       .  S
C2185      C2186   1.412       .  A
C2186     Br2187   1.922       .  S
C2191      C2192   1.403       .  A
C2191      C2196   1.403       .  A
C2191      H2198   1.085       .  S
C2192      C2193   1.406       .  A
C2193      C2194   1.395       .  A
C2193     Br2200   1.920       .  S
C2194      C2195   1.404       .  A
C2194      H2199   1.083       .  S
C2195      C2196   1.412       .  A
C2196     Br2197   1.919       .  S
C2201      C2202   1.406       .  A
C2201      C2206   1.403       .  A
C2201      H2208   1.083       .  S
C2202      C2203   1.413       .  A
C2203      C2204   1.400       .  A
C2203     Br2210   1.919       .  S
C2204      C2205   1.401       .  A
C2204      H2209   1.084       .  S
C2205      C2206   1.409       .  A
C2206     Br2207   1.918       .  S
C2211      C2212   1.407       .  A
C2211      C2216   1.393       .  A
C2211      H2218   1.084       .  S
C2212      C2213   1.410       .  A
C2213      C2214   1.406       .  A
C2213     Br2220   1.917       .  S
C2214      C2215   1.406       .  A
C2214      H2219   1.083       .  S
C2215      C2216   1.406       .  A
C2216     Br2217   1.922       .  S
C2221      C2222   1.397       .  A
C2221      C2226   1.391       .  A
C2221      H2228   1.085       .  S
C2222      C2223   1.405       .  A
C2223      C2224   1.404       .  A
C2223     Br2230   1.916       .  S
C2224      C2225   1.409       .  A
C2224      H2229   1.083       .  S
C2225      C2226   1.415       .  A
C2226     Br2227   1.918       .  S
C2231      C2232   1.406       .  A
C2231      C2236   1.399       .  A
C2231      H2238   1.082       .  S
C2232      C2233   1.415       .  A
C2233      C2234   1.404       .  A
C2233     Br2240   1.920       .  S
C2234      C2235   1.402       .  A
C2234      H2239   1.082       .  S
C2235      C2236   1.407       .  A
C2236     Br2237   1.920       .  S
C2241      C2242   1.408       .  A
C2241      C2246   1.401       .  A
C2241      H2248   1.083       .  S
C2242      C2243   1.411       .  A
C2243      C2244   1.402       .  A
C2243     Br2250   1.920       .  S
C2244      C2245   1.405       .  A
C2244      H2249   1.076       .  S
C2245      C2246   1.409       .  A
C2246     Br2247   1.920       .  S
C2251      C2252   1.406       .  A
C2251      C2256   1.398       .  A
C2251      H2258   1.084       .  S
C2252      C2253   1.407       .  A
C2253      C2254   1.396       .  A
C2253     Br2260   1.919       .  S
C2254      C2255   1.405       .  A
C2254      H2259   1.085       .  S
C2255      C2256   1.405       .  A
C2256     Br2257   1.918       .  S
C2261      C2262   1.403       .  A
C2261      C2266   1.405       .  A
C2261      H2268   1.083       .  S
C2262      C2263   1.414       .  A
C2263      C2264   1.397       .  A
C2263     Br2270   1.914       .  S
C2264      C2265   1.404       .  A
C2264      H2269   1.083       .  S
C2265      C2266   1.419       .  A
C2266     Br2267   1.920       .  S
C2271      C2276   1.395       .  A
C2271      H2278   1.086       .  S
C2272      C2273   1.413       .  A
C2273      C2274   1.404       .  A
C2273     Br2280   1.917       .  S
C2274      H2279   1.086       .  S
C2275      C2276   1.415       .  A
C2276     Br2277   1.924       .  S
C2281      C2286   1.405       .  A
C2281      H2288   1.084       .  S
C2282      C2283   1.413       .  A
C2283      C2284   1.402       .  A
C2283     Br2290   1.921       .  S
C2284      C2285   1.409       .  A
C2284      H2289   1.083       .  S
C2286     Br2287   1.916       .  S
C2291      C2292   1.405       .  A
C2291      C2296   1.400       .  A
C2291      H2298   1.084       .  S
C2292      C2293   1.414       .  A
C2293      C2294   1.400       .  A
C2293     Br2300   1.921       .  S
C2294      C2295   1.406       .  A
C2294      H2299   1.084       .  S
C2295      C2296   1.415       .  A
C2296     Br2297   1.918       .  S
C2301      C2306   1.402       .  A
C2301      H2308   1.084       .  S
C2302      C2303   1.413       .  A
C2303      C2304   1.396       .  A
C2303     Br2310   1.914       .  S
C2304      C2305   1.403       .  A
C2304      H2309   1.084       .  S
C2306     Br2307   1.921       .  S
C2311      C2312   1.400       .  A
C2311      C2316   1.399       .  A
C2311      H2318   1.084       .  S
C2312      C2313   1.411       .  A
C2313      C2314   1.400       .  A
C2314      C2315   1.407       .  A
C2314      H2319   1.083       .  S
C2315      C2316   1.417       .  A
C2316     Br2317   1.918       .  S
