geometry optimzed in LAMMPS
_audit_creation_date              2020-11-30 
_audit_creation_method            'lammps2cif' 
_symmetry_space_group_name_H-M    'P1' 
_symmetry_Int_Tables_number       1 
_symmetry_cell_setting            triclinic 
loop_ 
_symmetry_equiv_pos_as_xyz 
  x,y,z 
_cell_length_a                    29.43028655 
_cell_length_b                    29.429795974174038 
_cell_length_c                    27.16906711594513 
_cell_angle_alpha                 89.99882736131691 
_cell_angle_beta                  90.00080143035447 
_cell_angle_gamma                 120.01030649581672 
loop_ 
_atom_site_label 
_atom_site_type_symbol 
_atom_site_fract_x 
_atom_site_fract_y 
_atom_site_fract_z 
_atom_site_charge 
O1          O  0.43306736  0.19988177  0.29903522    -0.71600
O2          O  0.49629726  0.30622759  0.20135384    -0.71800
O3          O  0.43306382  0.19988314  0.20087832    -0.71700
O4          O  0.49629876  0.30622789  0.29855603    -0.71700
O5          O  0.06689407  0.30028235  0.29903333    -0.71700
O6          O  0.00365485  0.19392971  0.20135439    -0.71700
O7          O  0.06689182  0.30028058  0.20087365    -0.71600
O8          O  0.00365948  0.19393045  0.29855726    -0.71800
V9          V  0.46621490  0.25321678  0.24995586     1.35200
V10         V  0.03374342  0.24694472  0.24995464     1.35200
C11         C  0.45693266  0.17661189  0.31331502     0.77600
C12         C  0.04302288  0.32354663  0.18659290     0.77700
C13         C  0.45692718  0.17661232  0.18659869     0.77600
C14         C  0.04302506  0.32354782  0.31331504     0.77500
O15         O  0.30975961  0.30621315  0.04856978    -0.71600
O16         O  0.26670441  0.19987606  0.45089046    -0.71800
O17         O  0.30976602  0.30621456  0.45136851    -0.71700
O18         O  0.26669723  0.19987516  0.04905040    -0.71700
O19         O  0.19012948  0.19387176  0.04856632    -0.71700
O20         O  0.23319505  0.30020397  0.45088174    -0.71700
O21         O  0.19013513  0.19386923  0.45136555    -0.71600
O22         O  0.23319050  0.30020672  0.04904082    -0.71800
V23         V  0.28686118  0.25320651  0.99996961     1.35200
V24         V  0.21303362  0.24687601  0.49996363     1.35200
C25         C  0.28033127  0.32350279  0.06332415     0.77600
C26         C  0.21956281  0.17657995  0.43660880     0.77700
C27         C  0.28033811  0.32350218  0.43660575     0.77600
C28         C  0.21955465  0.17658133  0.06332892     0.77500
O29         O  0.00361347  0.30987385  0.04859212    -0.71600
O30         O  0.06687140  0.26679822  0.45091718    -0.71800
O31         O  0.00361993  0.30987695  0.45139149    -0.71700
O32         O  0.06686788  0.26680020  0.04907637    -0.71700
O33         O  0.49628277  0.19022849  0.04859599    -0.71700
O34         O  0.43303417  0.23330563  0.45091061    -0.71700
O35         O  0.49628581  0.19022705  0.45139527    -0.71600
O36         O  0.43302844  0.23330179  0.04906939    -0.71800
V37         V  0.03371079  0.28696570  0.49999429     1.35200
V38         V  0.46619028  0.21313731  0.49999284     1.35200
C39         C  0.45688585  0.28044557  0.06334660     0.77600
C40         C  0.04301245  0.21965409  0.43663894     0.77700
C41         C  0.45689401  0.28045044  0.43663319     0.77600
C42         C  0.04300874  0.21965633  0.06335431     0.77500
C43         C  0.37189335  0.06832752  0.09362911     0.03300
C44         C  0.40417539  0.04610919  0.09007509    -0.12900
C45         C  0.44291394  0.05708167  0.12498593     0.00800
C46         C  0.45389982  0.09583321  0.15988578    -0.11400
C47         C  0.43171713  0.12814448  0.15630192     0.03300
C48         C  0.38767150  0.11238617  0.12495865    -0.10800
H49         H  0.39687584  0.01713238  0.06192542     0.08900
H50         H  0.48286847  0.10312634  0.18804318     0.06400
H51         H  0.36644381  0.13364135  0.12494725     0.06300
C52         C  0.06821679  0.37200796  0.15628470     0.03300
C53         C  0.11227119  0.38778612  0.12495002    -0.12900
C54         C  0.12803245  0.43183839  0.09361314     0.00800
C55         C  0.09572558  0.45402777  0.09004116    -0.11400
C56         C  0.05697216  0.44303291  0.12494284     0.03300
C57         C  0.04600349  0.40429260  0.15984937    -0.10800
H58         H  0.13352147  0.36655310  0.12495321     0.08900
H59         H  0.10302109  0.48300493  0.06189102     0.06400
H60         H  0.01703028  0.39699219  0.18800328     0.06300
C61         C  0.47216199  0.02782856  0.12498610     0.02500
C62         C  0.02772411  0.05561475  0.12498343     0.02500
C63         C  0.05550037  0.02783794  0.12498315     0.02500
C64         C  0.02771592  0.47227698  0.12495568     0.02500
C65         C  0.47215337  0.44448855  0.12495649     0.02500
C66         C  0.44437507  0.47226532  0.12497978     0.02500
C67         C  0.30358419  0.43177059  0.15630768     0.03300
C68         C  0.35808986  0.45397420  0.15988553    -0.12900
C69         C  0.38586228  0.44300553  0.12498215     0.00800
C70         C  0.35809180  0.40426987  0.09006921    -0.11400
C71         C  0.30358513  0.37196543  0.09362930     0.03300
C72         C  0.27529478  0.38772218  0.12496364    -0.10800
H73         H  0.37976991  0.48294547  0.18804211     0.08900
H74         H  0.37977376  0.39698709  0.06191390     0.06400
H75         H  0.23280543  0.36647638  0.12495595     0.06300
C76         C  0.06821478  0.19640163  0.09365393     0.03300
C77         C  0.11226149  0.22469392  0.12499959    -0.12900
C78         C  0.12802159  0.19640525  0.15633483     0.00800
C79         C  0.09572001  0.14189711  0.15989492    -0.11400
C80         C  0.05698466  0.11412660  0.12498169     0.03300
C81         C  0.04601709  0.14189717  0.09007479    -0.10800
H82         H  0.13350342  0.26718338  0.12500726     0.08900
H83         H  0.10300433  0.12021428  0.18804938     0.06400
H84         H  0.01704813  0.12021566  0.06191707     0.06300
C85         C  0.19627988  0.06830592  0.15631695     0.03300
C86         C  0.22457640  0.11235344  0.12497192    -0.12900
C87         C  0.19629321  0.12812115  0.09363884     0.00800
C88         C  0.14178520  0.09582923  0.09008260    -0.11400
C89         C  0.11401107  0.05709491  0.12499497     0.03300
C90         C  0.14177655  0.04611444  0.15989769    -0.10800
H91         H  0.26706491  0.13358877  0.12496177     0.08900
H92         H  0.12010528  0.10311807  0.06192892     0.06400
H93         H  0.12009197  0.01713985  0.18805098     0.06300
C94         C  0.43167546  0.30369972  0.09364009     0.03300
C95         C  0.38763100  0.27540704  0.12498847    -0.12900
C96         C  0.37186813  0.30369516  0.15631976     0.00800
C97         C  0.40416516  0.35820449  0.15987214    -0.11400
C98         C  0.44289620  0.38597558  0.12495519     0.03300
C99         C  0.45386718  0.35820370  0.09005327    -0.10800
H100        H  0.36639380  0.23291707  0.12500231     0.08900
H101        H  0.39688110  0.37988774  0.18802558     0.06400
H102        H  0.48283482  0.37988383  0.06189379     0.06300
C103        C  0.37189597  0.06832519  0.40628543     0.03300
C104        C  0.40417914  0.04610939  0.40984855    -0.12900
C105        C  0.44292349  0.05708452  0.37494549     0.00800
C106        C  0.45391709  0.09584012  0.34004555    -0.11400
C107        C  0.43172674  0.12814594  0.34361732     0.03300
C108        C  0.38767511  0.11238278  0.37495274    -0.10800
H109        H  0.39687694  0.01713250  0.43800059     0.08900
H110        H  0.48289338  0.10313738  0.31189602     0.06400
H111        H  0.36644275  0.13363375  0.37495600     0.06300
C112        C  0.06821860  0.37200762  0.34362462     0.03300
C113        C  0.11227595  0.38778450  0.37495584    -0.12900
C114        C  0.12803717  0.43183300  0.40629586     0.00800
C115        C  0.09572998  0.45402013  0.40987459    -0.11400
C116        C  0.05697828  0.44303262  0.37497430     0.03300
C117        C  0.04600307  0.40429178  0.34006667    -0.10800
H118        H  0.13352794  0.36655312  0.37494807     0.08900
H119        H  0.10302467  0.48299168  0.43802894     0.06400
H120        H  0.01702504  0.39699181  0.31191677     0.06300
C121        C  0.47217067  0.02783066  0.37495469     0.02500
C122        C  0.02773194  0.05561756  0.37497065     0.02500
C123        C  0.05550990  0.02784111  0.37495651     0.02500
C124        C  0.02772524  0.47227968  0.37497324     0.02500
C125        C  0.47216425  0.44449127  0.37498318     0.02500
C126        C  0.44438463  0.47226718  0.37495735     0.02500
C127        C  0.19628990  0.06830876  0.34361933     0.03300
C128        C  0.22458732  0.11235365  0.37496638    -0.12900
C129        C  0.19630438  0.12811855  0.40630172     0.00800
C130        C  0.14179682  0.09582459  0.40985977    -0.11400
C131        C  0.11402134  0.05709734  0.37494308     0.03300
C132        C  0.14178659  0.04612117  0.34003712    -0.10800
H133        H  0.26707623  0.13358929  0.37497635     0.08900
H134        H  0.12011817  0.10310879  0.43801704     0.06400
H135        H  0.12010182  0.01715116  0.31188114     0.06300
C136        C  0.06821749  0.19639992  0.40633589     0.03300
C137        C  0.11227133  0.22469765  0.37499895    -0.12900
C138        C  0.12803092  0.19641442  0.34365748     0.00800
C139        C  0.09572543  0.14190938  0.34008283    -0.11400
C140        C  0.05698851  0.11412981  0.37499017     0.03300
C141        C  0.04601173  0.14189177  0.40989971    -0.10800
H142        H  0.13351857  0.26718765  0.37500181     0.08900
H143        H  0.10300928  0.12023415  0.31192125     0.06400
H144        H  0.01703377  0.12020288  0.43804832     0.06300
C145        C  0.30359470  0.43177047  0.34361796     0.03300
C146        C  0.35810091  0.45397557  0.34004328    -0.12900
C147        C  0.38587190  0.44300666  0.37495010     0.00800
C148        C  0.35809986  0.40427064  0.40986319    -0.11400
C149        C  0.30359382  0.37196477  0.40629929     0.03300
C150        C  0.27530450  0.38772118  0.37496165    -0.10800
H151        H  0.37978180  0.48294812  0.31188765     0.08900
H152        H  0.37978038  0.39698872  0.43802154     0.06400
H153        H  0.23281562  0.36647503  0.37496662     0.06300
C154        C  0.43168958  0.30370623  0.40633094     0.03300
C155        C  0.45388907  0.35821296  0.40990294    -0.12900
C156        C  0.44291147  0.38597868  0.37499671     0.00800
C157        C  0.40417938  0.35820222  0.34008422    -0.11400
C158        C  0.37187860  0.30369563  0.34365123     0.03300
C159        C  0.38763975  0.27541056  0.37498968    -0.10800
H160        H  0.48286225  0.37989819  0.43805608     0.08900
H161        H  0.39689444  0.37988036  0.31192536     0.06400
H162        H  0.36639621  0.23292054  0.37498760     0.06300
O163        O  0.26668377  0.06695285  0.29904597    -0.71600
O164        O  0.30975158  0.00370173  0.20136079    -0.71800
O165        O  0.26667658  0.06695370  0.20088828    -0.71700
O166        O  0.30975965  0.00370024  0.29856052    -0.71700
O167        O  0.23318940  0.43311383  0.29904651    -0.71700
O168        O  0.19010656  0.49636683  0.20136794    -0.71700
O169        O  0.23318339  0.43311225  0.20088708    -0.71600
O170        O  0.19011139  0.49636860  0.29856806    -0.71800
V171        V  0.28684580  0.03379411  0.24996405     1.35200
V172        V  0.21301874  0.46627227  0.24996749     1.35200
C173        C  0.21954047  0.04309632  0.31332329     0.77600
C174        C  0.28032601  0.45697364  0.18660647     0.77700
C175        C  0.21953294  0.04309501  0.18661230     0.77600
C176        C  0.28033488  0.45697356  0.31331955     0.77500
O177        O  0.19381710  0.00377272  0.04855174    -0.71600
O178        O  0.30017213  0.06700427  0.45087373    -0.71800
O179        O  0.19382253  0.00377047  0.45134891    -0.71700
O180        O  0.30016999  0.06700581  0.04903385    -0.71700
O181        O  0.30611383  0.49640858  0.04855816    -0.71700
O182        O  0.19977058  0.43317532  0.45087822    -0.71700
O183        O  0.30611411  0.49640583  0.45135551    -0.71600
O184        O  0.19976833  0.43317939  0.04903529    -0.71800
V185        V  0.24683441  0.03385677  0.99995226     1.35200
V186        V  0.25310334  0.46632551  0.49995679     1.35200
C187        C  0.17649798  0.45704504  0.06331135     0.77600
C188        C  0.32343557  0.04313274  0.43659392     0.77700
C189        C  0.17650319  0.45704143  0.43659498     0.77600
C190        C  0.32343452  0.04313552  0.06331695     0.77500
O191        O  0.19979292  0.26681276  0.29907511    -0.71600
O192        O  0.30612075  0.30986654  0.20138952    -0.71800
O193        O  0.19978476  0.26680629  0.20091624    -0.71700
O194        O  0.30612659  0.30986802  0.29859048    -0.71700
O195        O  0.30011634  0.23329587  0.29907130    -0.71700
O196        O  0.19377400  0.19023405  0.20139817    -0.71700
O197        O  0.30011117  0.23329490  0.20091170    -0.71600
O198        O  0.19378265  0.19024069  0.29859912    -0.71800
V199        V  0.25311815  0.28696745  0.24999284     1.35200
V200        V  0.24678432  0.21313732  0.24999497     1.35200
C201        C  0.17649568  0.21967068  0.31335650     0.77600
C202        C  0.32340809  0.28043784  0.18663016     0.77700
C203        C  0.17648528  0.21966240  0.18663939     0.77600
C204        C  0.32341475  0.28043890  0.31334889     0.77500
O205        O  0.43306726  0.19988163  0.79903516    -0.71600
O206        O  0.49629731  0.30622773  0.70135380    -0.71800
O207        O  0.43306387  0.19988320  0.70087819    -0.71700
O208        O  0.49629872  0.30622778  0.79855604    -0.71700
O209        O  0.06689407  0.30028230  0.79903320    -0.71700
O210        O  0.00365488  0.19392970  0.70135438    -0.71700
O211        O  0.06689177  0.30028053  0.70087361    -0.71600
O212        O  0.00365950  0.19393052  0.79855720    -0.71800
V213        V  0.46621488  0.25321676  0.74995582     1.35200
V214        V  0.03374340  0.24694471  0.74995459     1.35200
C215        C  0.45693269  0.17661196  0.81331505     0.77600
C216        C  0.04302286  0.32354658  0.68659279     0.77700
C217        C  0.45692712  0.17661215  0.68659887     0.77600
C218        C  0.04302503  0.32354771  0.81331505     0.77500
O219        O  0.30975960  0.30621313  0.54856982    -0.71600
O220        O  0.26670444  0.19987618  0.95089044    -0.71800
O221        O  0.30976601  0.30621451  0.95136845    -0.71700
O222        O  0.26669727  0.19987534  0.54905051    -0.71700
O223        O  0.19012944  0.19387185  0.54856627    -0.71700
O224        O  0.23319500  0.30020390  0.95088196    -0.71700
O225        O  0.19013505  0.19386917  0.95136561    -0.71600
O226        O  0.23319032  0.30020670  0.54904071    -0.71800
V227        V  0.28686118  0.25320652  0.49996966     1.35200
V228        V  0.21303364  0.24687595  0.99996370     1.35200
C229        C  0.28033112  0.32350270  0.56332412     0.77600
C230        C  0.21956285  0.17658008  0.93660876     0.77700
C231        C  0.28033801  0.32350206  0.93660577     0.77600
C232        C  0.21955459  0.17658134  0.56332877     0.77500
O233        O  0.00361346  0.30987389  0.54859221    -0.71600
O234        O  0.06687147  0.26679816  0.95091718    -0.71800
O235        O  0.00361981  0.30987685  0.95139147    -0.71700
O236        O  0.06686792  0.26680017  0.54907644    -0.71700
O237        O  0.49628273  0.19022852  0.54859603    -0.71700
O238        O  0.43303403  0.23330556  0.95091063    -0.71700
O239        O  0.49628579  0.19022702  0.95139517    -0.71600
O240        O  0.43302837  0.23330188  0.54906949    -0.71800
V241        V  0.03371079  0.28696569  0.99999425     1.35200
V242        V  0.46619030  0.21313729  0.99999281     1.35200
C243        C  0.45688579  0.28044569  0.56334665     0.77600
C244        C  0.04301248  0.21965404  0.93663882     0.77700
C245        C  0.45689393  0.28045032  0.93663303     0.77600
C246        C  0.04300873  0.21965631  0.56335437     0.77500
C247        C  0.37189328  0.06832733  0.59362912     0.03300
C248        C  0.40417535  0.04610919  0.59007513    -0.12900
C249        C  0.44291395  0.05708167  0.62498592     0.00800
C250        C  0.45389982  0.09583313  0.65988590    -0.11400
C251        C  0.43171715  0.12814433  0.65630209     0.03300
C252        C  0.38767145  0.11238594  0.62495879    -0.10800
H253        H  0.39687605  0.01713245  0.56192483     0.08900
H254        H  0.48286846  0.10312608  0.68804366     0.06400
H255        H  0.36644371  0.13364109  0.62494740     0.06300
C256        C  0.06821684  0.37200791  0.65628478     0.03300
C257        C  0.11227113  0.38778603  0.62494997    -0.12900
C258        C  0.12803242  0.43183831  0.59361321     0.00800
C259        C  0.09572559  0.45402781  0.59004123    -0.11400
C260        C  0.05697222  0.44303289  0.62494304     0.03300
C261        C  0.04600348  0.40429252  0.65984957    -0.10800
H262        H  0.13352126  0.36655290  0.62495267     0.08900
H263        H  0.10302123  0.48300501  0.56189161     0.06400
H264        H  0.01703077  0.39699245  0.68800370     0.06300
C265        C  0.47216200  0.02782860  0.62498613     0.02500
C266        C  0.02772416  0.05561479  0.62498341     0.02500
C267        C  0.05550041  0.02783798  0.62498324     0.02500
C268        C  0.02771602  0.47227707  0.62495576     0.02500
C269        C  0.47215343  0.44448862  0.62495663     0.02500
C270        C  0.44437511  0.47226541  0.62497994     0.02500
C271        C  0.30358417  0.43177060  0.65630785     0.03300
C272        C  0.35808988  0.45397437  0.65988563    -0.12900
C273        C  0.38586221  0.44300563  0.62498226     0.00800
C274        C  0.35809168  0.40426972  0.59006941    -0.11400
C275        C  0.30358488  0.37196531  0.59362940     0.03300
C276        C  0.27529465  0.38772220  0.62496375    -0.10800
H277        H  0.37976986  0.48294563  0.68804208     0.08900
H278        H  0.37977355  0.39698682  0.56191456     0.06400
H279        H  0.23280526  0.36647628  0.62495659     0.06300
C280        C  0.06821480  0.19640156  0.59365386     0.03300
C281        C  0.11226154  0.22469389  0.62499951    -0.12900
C282        C  0.12802163  0.19640526  0.65633476     0.00800
C283        C  0.09572000  0.14189712  0.65989486    -0.11400
C284        C  0.05698474  0.11412661  0.62498152     0.03300
C285        C  0.04601704  0.14189712  0.59007475    -0.10800
H286        H  0.13350342  0.26718335  0.62500714     0.08900
H287        H  0.10300433  0.12021432  0.68804926     0.06400
H288        H  0.01704799  0.12021556  0.56191700     0.06300
C289        C  0.19627993  0.06830591  0.65631704     0.03300
C290        C  0.22457637  0.11235354  0.62497195    -0.12900
C291        C  0.19629324  0.12812120  0.59363882     0.00800
C292        C  0.14178524  0.09582919  0.59008271    -0.11400
C293        C  0.11401113  0.05709491  0.62499516     0.03300
C294        C  0.14177661  0.04611448  0.65989773    -0.10800
H295        H  0.26706513  0.13358915  0.62496155     0.08900
H296        H  0.12010517  0.10311750  0.56192886     0.06400
H297        H  0.12009160  0.01713929  0.68805110     0.06300
C298        C  0.43167560  0.30370002  0.59364011     0.03300
C299        C  0.38763097  0.27540705  0.62498845    -0.12900
C300        C  0.37186815  0.30369523  0.65631968     0.00800
C301        C  0.40416524  0.35820445  0.65987225    -0.11400
C302        C  0.44289637  0.38597569  0.62495529     0.03300
C303        C  0.45386739  0.35820396  0.59005331    -0.10800
H304        H  0.36639387  0.23291774  0.62500207     0.08900
H305        H  0.39688108  0.37988730  0.68802562     0.06400
H306        H  0.48283510  0.37988414  0.56189390     0.06300
C307        C  0.37189599  0.06832513  0.90628537     0.03300
C308        C  0.40417921  0.04610941  0.90984852    -0.12900
C309        C  0.44292352  0.05708448  0.87494528     0.00800
C310        C  0.45391718  0.09584019  0.84004543    -0.11400
C311        C  0.43172674  0.12814588  0.84361710     0.03300
C312        C  0.38767510  0.11238272  0.87495269    -0.10800
H313        H  0.39687706  0.01713254  0.93800068     0.08900
H314        H  0.48289346  0.10313738  0.81189532     0.06400
H315        H  0.36644263  0.13363357  0.87495604     0.06300
C316        C  0.06821871  0.37200742  0.84362501     0.03300
C317        C  0.11227609  0.38778448  0.87495600    -0.12900
C318        C  0.12803726  0.43183307  0.90629591     0.00800
C319        C  0.09573010  0.45402027  0.90987472    -0.11400
C320        C  0.05697849  0.44303271  0.87497459     0.03300
C321        C  0.04600323  0.40429172  0.84006687    -0.10800
H322        H  0.13352791  0.36655297  0.87494872     0.08900
H323        H  0.10302486  0.48299192  0.93802902     0.06400
H324        H  0.01702568  0.39699166  0.81191761     0.06300
C325        C  0.47217072  0.02783070  0.87495471     0.02500
C326        C  0.02773199  0.05561758  0.87497062     0.02500
C327        C  0.05550988  0.02784109  0.87495643     0.02500
C328        C  0.02772531  0.47227974  0.87497340     0.02500
C329        C  0.47216431  0.44449140  0.87498325     0.02500
C330        C  0.44438467  0.47226726  0.87495736     0.02500
C331        C  0.19628983  0.06830887  0.84361926     0.03300
C332        C  0.22458727  0.11235365  0.87496640    -0.12900
C333        C  0.19630436  0.12811862  0.90630182     0.00800
C334        C  0.14179680  0.09582465  0.90985987    -0.11400
C335        C  0.11402126  0.05709727  0.87494330     0.03300
C336        C  0.14178654  0.04612121  0.84003728    -0.10800
H337        H  0.26707620  0.13358947  0.87497580     0.08900
H338        H  0.12011804  0.10310870  0.93801762     0.06400
H339        H  0.12010166  0.01715117  0.81188117     0.06300
C340        C  0.06821743  0.19639978  0.90633576     0.03300
C341        C  0.11227136  0.22469756  0.87499901    -0.12900
C342        C  0.12803095  0.19641432  0.84365738     0.00800
C343        C  0.09572542  0.14190926  0.84008269    -0.11400
C344        C  0.05698859  0.11412975  0.87498997     0.03300
C345        C  0.04601186  0.14189161  0.90989965    -0.10800
H346        H  0.13351845  0.26718756  0.87500185     0.08900
H347        H  0.10300923  0.12023368  0.81192108     0.06400
H348        H  0.01703363  0.12020245  0.93804785     0.06300
C349        C  0.30359474  0.43177054  0.84361803     0.03300
C350        C  0.35810098  0.45397564  0.84004333    -0.12900
C351        C  0.38587189  0.44300666  0.87495006     0.00800
C352        C  0.35809977  0.40427060  0.90986319    -0.11400
C353        C  0.30359367  0.37196472  0.90629929     0.03300
C354        C  0.27530451  0.38772121  0.87496168    -0.10800
H355        H  0.37978188  0.48294803  0.81188768     0.08900
H356        H  0.37978008  0.39698826  0.93802101     0.06400
H357        H  0.23281557  0.36647542  0.87496707     0.06300
C358        C  0.43168960  0.30370648  0.90633093     0.03300
C359        C  0.45388897  0.35821315  0.90990299    -0.12900
C360        C  0.44291151  0.38597893  0.87499664     0.00800
C361        C  0.40417946  0.35820244  0.84008417    -0.11400
C362        C  0.37187879  0.30369594  0.84365107     0.03300
C363        C  0.38763979  0.27541069  0.87498964    -0.10800
H364        H  0.48286211  0.37989836  0.93805620     0.08900
H365        H  0.39689473  0.37988078  0.81192486     0.06400
H366        H  0.36639673  0.23292127  0.87498745     0.06300
O367        O  0.26668373  0.06695290  0.79904594    -0.71600
O368        O  0.30975149  0.00370178  0.70136073    -0.71800
O369        O  0.26667671  0.06695375  0.70088821    -0.71700
O370        O  0.30975975  0.00370034  0.79856045    -0.71700
O371        O  0.23318950  0.43311408  0.79904658    -0.71700
O372        O  0.19010644  0.49636675  0.70136797    -0.71700
O373        O  0.23318340  0.43311215  0.70088715    -0.71600
O374        O  0.19011136  0.49636865  0.79856827    -0.71800
V375        V  0.28684584  0.03379419  0.74996402     1.35200
V376        V  0.21301872  0.46627229  0.74996754     1.35200
C377        C  0.21954044  0.04309632  0.81332337     0.77600
C378        C  0.28032605  0.45697374  0.68660652     0.77700
C379        C  0.21953302  0.04309512  0.68661238     0.77600
C380        C  0.28033499  0.45697368  0.81331957     0.77500
O381        O  0.19381696  0.00377263  0.54855175    -0.71600
O382        O  0.30017205  0.06700416  0.95087365    -0.71800
O383        O  0.19382250  0.00377052  0.95134893    -0.71700
O384        O  0.30016991  0.06700575  0.54903405    -0.71700
O385        O  0.30611393  0.49640860  0.54855803    -0.71700
O386        O  0.19977066  0.43317527  0.95087823    -0.71700
O387        O  0.30611428  0.49640593  0.95135564    -0.71600
O388        O  0.19976838  0.43317944  0.54903512    -0.71800
V389        V  0.24683441  0.03385675  0.49995230     1.35200
V390        V  0.25310336  0.46632553  0.99995687     1.35200
C391        C  0.17649798  0.45704503  0.56331133     0.77600
C392        C  0.32343554  0.04313267  0.93659384     0.77700
C393        C  0.17650300  0.45704120  0.93659522     0.77600
C394        C  0.32343457  0.04313551  0.56331687     0.77500
O395        O  0.19979308  0.26681285  0.79907513    -0.71600
O396        O  0.30612068  0.30986647  0.70138960    -0.71800
O397        O  0.19978467  0.26680625  0.70091640    -0.71700
O398        O  0.30612663  0.30986806  0.79859054    -0.71700
O399        O  0.30011645  0.23329594  0.79907124    -0.71700
O400        O  0.19377402  0.19023405  0.70139812    -0.71700
O401        O  0.30011110  0.23329485  0.70091163    -0.71600
O402        O  0.19378257  0.19024054  0.79859909    -0.71800
V403        V  0.25311816  0.28696746  0.74999288     1.35200
V404        V  0.24678430  0.21313727  0.74999495     1.35200
C405        C  0.17649568  0.21967067  0.81335640     0.77600
C406        C  0.32340806  0.28043781  0.68663018     0.77700
C407        C  0.17648531  0.21966240  0.68663938     0.77600
C408        C  0.32341488  0.28043898  0.81334883     0.77500
O409        O  0.43306725  0.69988174  0.29903520    -0.71600
O410        O  0.49629726  0.80622757  0.20135383    -0.71800
O411        O  0.43306368  0.69988311  0.20087834    -0.71700
O412        O  0.49629878  0.80622783  0.29855604    -0.71700
O413        O  0.06689413  0.80028224  0.29903331    -0.71700
O414        O  0.00365494  0.69392967  0.20135442    -0.71700
O415        O  0.06689177  0.80028060  0.20087361    -0.71600
O416        O  0.00365947  0.69393040  0.29855725    -0.71800
V417        V  0.46621484  0.75321674  0.24995585     1.35200
V418        V  0.03374340  0.74694468  0.24995462     1.35200
C419        C  0.45693258  0.67661186  0.31331500     0.77600
C420        C  0.04302281  0.82354664  0.18659295     0.77700
C421        C  0.45692708  0.67661228  0.18659870     0.77600
C422        C  0.04302518  0.82354776  0.31331506     0.77500
O423        O  0.30975974  0.80621331  0.04856977    -0.71600
O424        O  0.26670431  0.69987599  0.45089053    -0.71800
O425        O  0.30976605  0.80621453  0.45136850    -0.71700
O426        O  0.26669733  0.69987536  0.04905034    -0.71700
O427        O  0.19012956  0.69387193  0.04856631    -0.71700
O428        O  0.23319515  0.80020415  0.45088187    -0.71700
O429        O  0.19013523  0.69386937  0.45136551    -0.71600
O430        O  0.23319046  0.80020688  0.04904075    -0.71800
V431        V  0.28686127  0.75320668  0.99996960     1.35200
V432        V  0.21303371  0.74687615  0.49996366     1.35200
C433        C  0.28033124  0.82350281  0.06332420     0.77600
C434        C  0.21956282  0.67658007  0.43660871     0.77700
C435        C  0.28033811  0.82350211  0.43660566     0.77600
C436        C  0.21955472  0.67658146  0.06332883     0.77500
O437        O  0.00361359  0.80987401  0.04859215    -0.71600
O438        O  0.06687136  0.76679809  0.45091721    -0.71800
O439        O  0.00361998  0.80987694  0.45139149    -0.71700
O440        O  0.06686796  0.76680030  0.04907635    -0.71700
O441        O  0.49628277  0.69022852  0.04859597    -0.71700
O442        O  0.43303419  0.73330566  0.45091069    -0.71700
O443        O  0.49628576  0.69022698  0.45139526    -0.71600
O444        O  0.43302847  0.73330189  0.04906941    -0.71800
V445        V  0.03371079  0.78696565  0.49999429     1.35200
V446        V  0.46619029  0.71313733  0.49999286     1.35200
C447        C  0.45688592  0.78044566  0.06334662     0.77600
C448        C  0.04301247  0.71965398  0.43663891     0.77700
C449        C  0.45689415  0.78045044  0.43663319     0.77600
C450        C  0.04300881  0.71965641  0.06335423     0.77500
C451        C  0.37189324  0.56832756  0.09362913     0.03300
C452        C  0.40417535  0.54610924  0.09007510    -0.12900
C453        C  0.44291387  0.55708170  0.12498590     0.00800
C454        C  0.45389970  0.59583325  0.15988573    -0.11400
C455        C  0.43171691  0.62814449  0.15630194     0.03300
C456        C  0.38767139  0.61238610  0.12495865    -0.10800
H457        H  0.39687582  0.51713247  0.06192539     0.08900
H458        H  0.48286838  0.60312643  0.18804310     0.06400
H459        H  0.36644318  0.63364132  0.12494741     0.06300
C460        C  0.06821655  0.87200800  0.15628482     0.03300
C461        C  0.11227103  0.88778612  0.12495006    -0.12900
C462        C  0.12803229  0.93183848  0.09361312     0.00800
C463        C  0.09572550  0.95402785  0.09004115    -0.11400
C464        C  0.05697203  0.94303293  0.12494295     0.03300
C465        C  0.04600340  0.90429257  0.15984949    -0.10800
H466        H  0.13352072  0.86655315  0.12495310     0.08900
H467        H  0.10302105  0.98300506  0.06189099     0.06400
H468        H  0.01703047  0.89699244  0.18800410     0.06300
C469        C  0.47216193  0.52782852  0.12498610     0.02500
C470        C  0.02772415  0.55561477  0.12498347     0.02500
C471        C  0.05550042  0.52783793  0.12498322     0.02500
C472        C  0.02771587  0.97227703  0.12495562     0.02500
C473        C  0.47215340  0.94448859  0.12495647     0.02500
C474        C  0.44437511  0.97226538  0.12497978     0.02500
C475        C  0.30358426  0.93177062  0.15630771     0.03300
C476        C  0.35808995  0.95397430  0.15988556    -0.12900
C477        C  0.38586231  0.94300558  0.12498215     0.00800
C478        C  0.35809179  0.90426994  0.09006919    -0.11400
C479        C  0.30358509  0.87196543  0.09362930     0.03300
C480        C  0.27529482  0.88772229  0.12496360    -0.10800
H481        H  0.37976994  0.98294546  0.18804210     0.08900
H482        H  0.37977382  0.89698721  0.06191387     0.06400
H483        H  0.23280536  0.86647647  0.12495610     0.06300
C484        C  0.06821480  0.69640168  0.09365388     0.03300
C485        C  0.11226148  0.72469397  0.12499958    -0.12900
C486        C  0.12802167  0.69640531  0.15633472     0.00800
C487        C  0.09572001  0.64189712  0.15989494    -0.11400
C488        C  0.05698467  0.61412664  0.12498163     0.03300
C489        C  0.04601708  0.64189717  0.09007473    -0.10800
H490        H  0.13350343  0.76718346  0.12500714     0.08900
H491        H  0.10300425  0.62021441  0.18804924     0.06400
H492        H  0.01704814  0.62021566  0.06191704     0.06300
C493        C  0.19628003  0.56830597  0.15631701     0.03300
C494        C  0.22457645  0.61235353  0.12497193    -0.12900
C495        C  0.19629332  0.62812123  0.09363883     0.00800
C496        C  0.14178524  0.59582918  0.09008266    -0.11400
C497        C  0.11401116  0.55709488  0.12499517     0.03300
C498        C  0.14177673  0.54611449  0.15989781    -0.10800
H499        H  0.26706522  0.63358934  0.12496198     0.08900
H500        H  0.12010524  0.60311759  0.06192885     0.06400
H501        H  0.12009207  0.51713918  0.18805098     0.06300
C502        C  0.43167566  0.80369995  0.09364004     0.03300
C503        C  0.38763103  0.77540699  0.12498845    -0.12900
C504        C  0.37186822  0.80369517  0.15631963     0.00800
C505        C  0.40416520  0.85820448  0.15987199    -0.11400
C506        C  0.44289646  0.88597564  0.12495510     0.03300
C507        C  0.45386736  0.85820386  0.09005316    -0.10800
H508        H  0.36639419  0.73291770  0.12500231     0.08900
H509        H  0.39688153  0.87988725  0.18802539     0.06400
H510        H  0.48283511  0.87988405  0.06189368     0.06300
C511        C  0.37189597  0.56832508  0.40628536     0.03300
C512        C  0.40417922  0.54610936  0.40984855    -0.12900
C513        C  0.44292352  0.55708443  0.37494548     0.00800
C514        C  0.45391707  0.59584008  0.34004561    -0.11400
C515        C  0.43172664  0.62814589  0.34361732     0.03300
C516        C  0.38767501  0.61238272  0.37495275    -0.10800
H517        H  0.39687695  0.51713248  0.43800067     0.08900
H518        H  0.48289338  0.60313741  0.31189602     0.06400
H519        H  0.36644256  0.63363364  0.37495605     0.06300
C520        C  0.06821870  0.87200754  0.34362474     0.03300
C521        C  0.11227600  0.88778444  0.37495586    -0.12900
C522        C  0.12803722  0.93183296  0.40629579     0.00800
C523        C  0.09573008  0.95402010  0.40987462    -0.11400
C524        C  0.05697842  0.94303265  0.37497436     0.03300
C525        C  0.04600316  0.90429170  0.34006675    -0.10800
H526        H  0.13352797  0.86655314  0.37494808     0.08900
H527        H  0.10302500  0.98299165  0.43802894     0.06400
H528        H  0.01702556  0.89699187  0.31191687     0.06300
C529        C  0.47217071  0.52783062  0.37495472     0.02500
C530        C  0.02773198  0.55561760  0.37497065     0.02500
C531        C  0.05550986  0.52784110  0.37495655     0.02500
C532        C  0.02772534  0.97227974  0.37497319     0.02500
C533        C  0.47216430  0.94449142  0.37498311     0.02500
C534        C  0.44438464  0.97226727  0.37495731     0.02500
C535        C  0.19628972  0.56830871  0.34361911     0.03300
C536        C  0.22458720  0.61235364  0.37496641    -0.12900
C537        C  0.19630430  0.62811859  0.40630174     0.00800
C538        C  0.14179677  0.59582461  0.40985981    -0.11400
C539        C  0.11402124  0.55709719  0.37494305     0.03300
C540        C  0.14178645  0.54612116  0.34003699    -0.10800
H541        H  0.26707608  0.63358924  0.37497641     0.08900
H542        H  0.12011817  0.60310880  0.43801713     0.06400
H543        H  0.12010127  0.51715059  0.31188076     0.06300
C544        C  0.06821737  0.69639978  0.40633582     0.03300
C545        C  0.11227126  0.72469756  0.37499896    -0.12900
C546        C  0.12803091  0.69641433  0.34365744     0.00800
C547        C  0.09572541  0.64190931  0.34008278    -0.11400
C548        C  0.05698854  0.61412979  0.37499007     0.03300
C549        C  0.04601170  0.64189164  0.40989966    -0.10800
H550        H  0.13351843  0.76718755  0.37500187     0.08900
H551        H  0.10300915  0.62023373  0.31192111     0.06400
H552        H  0.01703395  0.62020251  0.43804843     0.06300
C553        C  0.30359470  0.93177040  0.34361801     0.03300
C554        C  0.35810097  0.95397558  0.34004334    -0.12900
C555        C  0.38587195  0.94300666  0.37495020     0.00800
C556        C  0.35809986  0.90427061  0.40986322    -0.11400
C557        C  0.30359381  0.87196474  0.40629932     0.03300
C558        C  0.27530450  0.88772117  0.37496172    -0.10800
H559        H  0.37978170  0.98294805  0.31188790     0.08900
H560        H  0.37978032  0.89698831  0.43802146     0.06400
H561        H  0.23281551  0.86647492  0.37496656     0.06300
C562        C  0.43168984  0.80370660  0.40633121     0.03300
C563        C  0.45388922  0.85821321  0.40990308    -0.12900
C564        C  0.44291162  0.88597897  0.37499671     0.00800
C565        C  0.40417946  0.85820245  0.34008408    -0.11400
C566        C  0.37187879  0.80369599  0.34365115     0.03300
C567        C  0.38763995  0.77541084  0.37498976    -0.10800
H568        H  0.48286315  0.87989880  0.43805633     0.08900
H569        H  0.39689458  0.87988066  0.31192473     0.06400
H570        H  0.36639668  0.73292133  0.37498769     0.06300
O571        O  0.26668375  0.56695286  0.29904590    -0.71600
O572        O  0.30975144  0.50370156  0.20136083    -0.71800
O573        O  0.26667671  0.56695377  0.20088824    -0.71700
O574        O  0.30975970  0.50370021  0.29856057    -0.71700
O575        O  0.23318951  0.93311390  0.29904648    -0.71700
O576        O  0.19010646  0.99636674  0.20136797    -0.71700
O577        O  0.23318349  0.93311226  0.20088704    -0.71600
O578        O  0.19011147  0.99636866  0.29856821    -0.71800
V579        V  0.28684581  0.53379408  0.24996406     1.35200
V580        V  0.21301880  0.96627228  0.24996751     1.35200
C581        C  0.21954046  0.54309623  0.31332328     0.77600
C582        C  0.28032613  0.95697380  0.18660638     0.77700
C583        C  0.21953307  0.54309512  0.18661232     0.77600
C584        C  0.28033494  0.95697364  0.31331956     0.77500
O585        O  0.19381710  0.50377276  0.04855173    -0.71600
O586        O  0.30017217  0.56700409  0.45087363    -0.71800
O587        O  0.19382253  0.50377057  0.45134898    -0.71700
O588        O  0.30016996  0.56700584  0.04903382    -0.71700
O589        O  0.30611384  0.99640860  0.04855816    -0.71700
O590        O  0.19977062  0.93317531  0.45087819    -0.71700
O591        O  0.30611416  0.99640592  0.45135552    -0.71600
O592        O  0.19976830  0.93317941  0.04903531    -0.71800
V593        V  0.24683442  0.53385678  0.99995221     1.35200
V594        V  0.25310337  0.96632557  0.49995678     1.35200
C595        C  0.17649794  0.95704502  0.06331136     0.77600
C596        C  0.32343567  0.54313264  0.43659394     0.77700
C597        C  0.17650315  0.95704131  0.43659497     0.77600
C598        C  0.32343448  0.54313550  0.06331694     0.77500
O599        O  0.19979293  0.76681279  0.29907508    -0.71600
O600        O  0.30612076  0.80986647  0.20138952    -0.71800
O601        O  0.19978479  0.76680631  0.20091625    -0.71700
O602        O  0.30612658  0.80986801  0.29859046    -0.71700
O603        O  0.30011644  0.73329591  0.29907132    -0.71700
O604        O  0.19377398  0.69023404  0.20139819    -0.71700
O605        O  0.30011119  0.73329484  0.20091167    -0.71600
O606        O  0.19378260  0.69024057  0.29859917    -0.71800
V607        V  0.25311816  0.78696743  0.24999284     1.35200
V608        V  0.24678432  0.71313726  0.24999499     1.35200
C609        C  0.17649570  0.71967068  0.31335653     0.77600
C610        C  0.32340813  0.78043780  0.18663015     0.77700
C611        C  0.17648529  0.71966240  0.18663941     0.77600
C612        C  0.32341481  0.78043895  0.31334888     0.77500
O613        O  0.43306715  0.69988159  0.79903509    -0.71600
O614        O  0.49629737  0.80622775  0.70135383    -0.71800
O615        O  0.43306367  0.69988317  0.70087816    -0.71700
O616        O  0.49629873  0.80622770  0.79855608    -0.71700
O617        O  0.06689414  0.80028221  0.79903319    -0.71700
O618        O  0.00365498  0.69392977  0.70135447    -0.71700
O619        O  0.06689173  0.80028052  0.70087359    -0.71600
O620        O  0.00365952  0.69393049  0.79855718    -0.71800
V621        V  0.46621482  0.75321673  0.74995580     1.35200
V622        V  0.03374340  0.74694469  0.74995460     1.35200
C623        C  0.45693263  0.67661194  0.81331498     0.77600
C624        C  0.04302280  0.82354656  0.68659282     0.77700
C625        C  0.45692704  0.67661223  0.68659881     0.77600
C626        C  0.04302514  0.82354764  0.81331507     0.77500
O627        O  0.30975965  0.80621314  0.54856979    -0.71600
O628        O  0.26670449  0.69987634  0.95089042    -0.71800
O629        O  0.30976615  0.80621474  0.95136847    -0.71700
O630        O  0.26669728  0.69987531  0.54905055    -0.71700
O631        O  0.19012953  0.69387197  0.54856618    -0.71700
O632        O  0.23319512  0.80020408  0.95088194    -0.71700
O633        O  0.19013529  0.69386946  0.95136573    -0.71600
O634        O  0.23319045  0.80020690  0.54904081    -0.71800
V635        V  0.28686118  0.75320651  0.49996968     1.35200
V636        V  0.21303372  0.74687613  0.99996371     1.35200
C637        C  0.28033126  0.82350287  0.56332407     0.77600
C638        C  0.21956296  0.67658033  0.93660874     0.77700
C639        C  0.28033812  0.82350220  0.93660570     0.77600
C640        C  0.21955463  0.67658141  0.56332876     0.77500
O641        O  0.00361348  0.80987390  0.54859215    -0.71600
O642        O  0.06687139  0.76679815  0.95091708    -0.71800
O643        O  0.00361995  0.80987710  0.95139148    -0.71700
O644        O  0.06686793  0.76680016  0.54907648    -0.71700
O645        O  0.49628275  0.69022850  0.54859600    -0.71700
O646        O  0.43303414  0.73330572  0.95091070    -0.71700
O647        O  0.49628577  0.69022706  0.95139517    -0.71600
O648        O  0.43302850  0.73330202  0.54906953    -0.71800
V649        V  0.03371080  0.78696574  0.99999423     1.35200
V650        V  0.46619027  0.71313729  0.99999281     1.35200
C651        C  0.45688590  0.78044579  0.56334663     0.77600
C652        C  0.04301251  0.71965397  0.93663889     0.77700
C653        C  0.45689416  0.78045044  0.93663304     0.77600
C654        C  0.04300866  0.71965628  0.56335438     0.77500
C655        C  0.37189327  0.56832748  0.59362922     0.03300
C656        C  0.40417534  0.54610922  0.59007528    -0.12900
C657        C  0.44291410  0.55708188  0.62498603     0.00800
C658        C  0.45389975  0.59583324  0.65988595    -0.11400
C659        C  0.43171703  0.62814444  0.65630212     0.03300
C660        C  0.38767130  0.61238592  0.62495881    -0.10800
H661        H  0.39687644  0.51713322  0.56192495     0.08900
H662        H  0.48286890  0.60312667  0.68804355     0.06400
H663        H  0.36644278  0.63364061  0.62494769     0.06300
C664        C  0.06821664  0.87200788  0.65628479     0.03300
C665        C  0.11227104  0.88778595  0.62495003    -0.12900
C666        C  0.12803228  0.93183827  0.59361330     0.00800
C667        C  0.09572550  0.95402777  0.59004132    -0.11400
C668        C  0.05697208  0.94303281  0.62494316     0.03300
C669        C  0.04600341  0.90429247  0.65984959    -0.10800
H670        H  0.13352062  0.86655291  0.62495261     0.08900
H671        H  0.10302084  0.98300441  0.56189171     0.06400
H672        H  0.01703057  0.89699226  0.68800374     0.06300
C673        C  0.47216201  0.52782863  0.62498619     0.02500
C674        C  0.02772419  0.55561481  0.62498353     0.02500
C675        C  0.05550047  0.52783803  0.62498336     0.02500
C676        C  0.02771588  0.97227699  0.62495571     0.02500
C677        C  0.47215333  0.94448848  0.62495663     0.02500
C678        C  0.44437505  0.97226533  0.62497995     0.02500
C679        C  0.30358424  0.93177069  0.65630774     0.03300
C680        C  0.35808992  0.95397442  0.65988562    -0.12900
C681        C  0.38586219  0.94300551  0.62498225     0.00800
C682        C  0.35809174  0.90426982  0.59006931    -0.11400
C683        C  0.30358504  0.87196538  0.59362938     0.03300
C684        C  0.27529470  0.88772230  0.62496370    -0.10800
H685        H  0.37976965  0.98294502  0.68804209     0.08900
H686        H  0.37977371  0.89698696  0.56191450     0.06400
H687        H  0.23280563  0.86647692  0.62495634     0.06300
C688        C  0.06821493  0.69640182  0.59365386     0.03300
C689        C  0.11226160  0.72469413  0.62499947    -0.12900
C690        C  0.12802187  0.69640572  0.65633460     0.00800
C691        C  0.09572014  0.64189736  0.65989484    -0.11400
C692        C  0.05698481  0.61412673  0.62498150     0.03300
C693        C  0.04601717  0.64189724  0.59007475    -0.10800
H694        H  0.13350380  0.76718434  0.62500697     0.08900
H695        H  0.10300450  0.62021484  0.68804912     0.06400
H696        H  0.01704814  0.62021571  0.56191701     0.06300
C697        C  0.19627992  0.56830594  0.65631703     0.03300
C698        C  0.22457639  0.61235349  0.62497191    -0.12900
C699        C  0.19629322  0.62812123  0.59363874     0.00800
C700        C  0.14178526  0.59582927  0.59008264    -0.11400
C701        C  0.11401119  0.55709501  0.62499504     0.03300
C702        C  0.14177660  0.54611450  0.65989776    -0.10800
H703        H  0.26706488  0.63358863  0.62496141     0.08900
H704        H  0.12010518  0.60311752  0.56192868     0.06400
H705        H  0.12009195  0.51714010  0.68805114     0.06300
C706        C  0.43167567  0.80370002  0.59364007     0.03300
C707        C  0.38763107  0.77540709  0.62498842    -0.12900
C708        C  0.37186821  0.80369520  0.65631958     0.00800
C709        C  0.40416526  0.85820444  0.65987213    -0.11400
C710        C  0.44289644  0.88597555  0.62495525     0.03300
C711        C  0.45386738  0.85820395  0.59005319    -0.10800
H712        H  0.36639396  0.73291765  0.62500200     0.08900
H713        H  0.39688158  0.87988718  0.68802546     0.06400
H714        H  0.48283501  0.87988422  0.56189385     0.06300
C715        C  0.37189603  0.56832509  0.90628536     0.03300
C716        C  0.40417926  0.54610934  0.90984856    -0.12900
C717        C  0.44292361  0.55708451  0.87494531     0.00800
C718        C  0.45391713  0.59584017  0.84004537    -0.11400
C719        C  0.43172668  0.62814588  0.84361704     0.03300
C720        C  0.38767507  0.61238277  0.87495268    -0.10800
H721        H  0.39687717  0.51713259  0.93800084     0.08900
H722        H  0.48289345  0.60313741  0.81189520     0.06400
H723        H  0.36644255  0.63363355  0.87495585     0.06300
C724        C  0.06821871  0.87200736  0.84362503     0.03300
C725        C  0.11227610  0.88778446  0.87495604    -0.12900
C726        C  0.12803727  0.93183309  0.90629590     0.00800
C727        C  0.09573007  0.95402022  0.90987474    -0.11400
C728        C  0.05697848  0.94303268  0.87497456     0.03300
C729        C  0.04600322  0.90429166  0.84006687    -0.10800
H730        H  0.13352789  0.86655294  0.87494874     0.08900
H731        H  0.10302482  0.98299185  0.93802902     0.06400
H732        H  0.01702562  0.89699160  0.81191759     0.06300
C733        C  0.47217075  0.52783068  0.87495470     0.02500
C734        C  0.02773200  0.55561763  0.87497062     0.02500
C735        C  0.05550990  0.52784118  0.87495650     0.02500
C736        C  0.02772531  0.97227973  0.87497336     0.02500
C737        C  0.47216430  0.94449147  0.87498316     0.02500
C738        C  0.44438465  0.97226730  0.87495730     0.02500
C739        C  0.19628979  0.56830897  0.84361909     0.03300
C740        C  0.22458717  0.61235362  0.87496640    -0.12900
C741        C  0.19630434  0.62811878  0.90630184     0.00800
C742        C  0.14179684  0.59582473  0.90986001    -0.11400
C743        C  0.11402127  0.55709745  0.87494332     0.03300
C744        C  0.14178648  0.54612124  0.84003727    -0.10800
H745        H  0.26707613  0.63358943  0.87497565     0.08900
H746        H  0.12011804  0.60310910  0.93801771     0.06400
H747        H  0.12010151  0.51715141  0.81188098     0.06300
C748        C  0.06821730  0.69639968  0.90633562     0.03300
C749        C  0.11227124  0.72469746  0.87499897    -0.12900
C750        C  0.12803094  0.69641424  0.84365746     0.00800
C751        C  0.09572542  0.64190921  0.84008268    -0.11400
C752        C  0.05698857  0.61412979  0.87498994     0.03300
C753        C  0.04601172  0.64189159  0.90989956    -0.10800
H754        H  0.13351807  0.76718697  0.87500189     0.08900
H755        H  0.10300912  0.62023385  0.81192124     0.06400
H756        H  0.01703408  0.62020273  0.93804775     0.06300
C757        C  0.30359465  0.93177050  0.84361802     0.03300
C758        C  0.35810092  0.95397557  0.84004336    -0.12900
C759        C  0.38587189  0.94300661  0.87494992     0.00800
C760        C  0.35809978  0.90427063  0.90986308    -0.11400
C761        C  0.30359365  0.87196473  0.90629919     0.03300
C762        C  0.27530443  0.88772109  0.87496166    -0.10800
H763        H  0.37978201  0.98294872  0.81188801     0.08900
H764        H  0.37978015  0.89698825  0.93802080     0.06400
H765        H  0.23281517  0.86647473  0.87496700     0.06300
C766        C  0.43168975  0.80370659  0.90633119     0.03300
C767        C  0.45388906  0.85821320  0.90990315    -0.12900
C768        C  0.44291162  0.88597898  0.87499683     0.00800
C769        C  0.40417949  0.85820238  0.84008428    -0.11400
C770        C  0.37187891  0.80369591  0.84365122     0.03300
C771        C  0.38763995  0.77541078  0.87498979    -0.10800
H772        H  0.48286292  0.87989873  0.93805641     0.08900
H773        H  0.39689461  0.87988036  0.81192503     0.06400
H774        H  0.36639682  0.73292126  0.87498757     0.06300
O775        O  0.26668372  0.56695290  0.79904585    -0.71600
O776        O  0.30975147  0.50370173  0.70136085    -0.71800
O777        O  0.26667670  0.56695364  0.70088816    -0.71700
O778        O  0.30975980  0.50370025  0.79856055    -0.71700
O779        O  0.23318947  0.93311414  0.79904658    -0.71700
O780        O  0.19010650  0.99636685  0.70136799    -0.71700
O781        O  0.23318343  0.93311225  0.70088715    -0.71600
O782        O  0.19011141  0.99636868  0.79856827    -0.71800
V783        V  0.28684582  0.53379412  0.74996406     1.35200
V784        V  0.21301876  0.96627236  0.74996753     1.35200
C785        C  0.21954045  0.54309631  0.81332335     0.77600
C786        C  0.28032609  0.95697376  0.68660654     0.77700
C787        C  0.21953298  0.54309503  0.68661236     0.77600
C788        C  0.28033498  0.95697373  0.81331946     0.77500
O789        O  0.19381698  0.50377270  0.54855173    -0.71600
O790        O  0.30017211  0.56700415  0.95087354    -0.71800
O791        O  0.19382248  0.50377045  0.95134892    -0.71700
O792        O  0.30016987  0.56700576  0.54903400    -0.71700
O793        O  0.30611389  0.99640860  0.54855800    -0.71700
O794        O  0.19977060  0.93317523  0.95087821    -0.71700
O795        O  0.30611435  0.99640596  0.95135566    -0.71600
O796        O  0.19976836  0.93317945  0.54903514    -0.71800
V797        V  0.24683441  0.53385674  0.49995228     1.35200
V798        V  0.25310336  0.96632554  0.99995686     1.35200
C799        C  0.17649792  0.95704498  0.56331136     0.77600
C800        C  0.32343570  0.54313271  0.93659395     0.77700
C801        C  0.17650303  0.95704126  0.93659517     0.77600
C802        C  0.32343456  0.54313552  0.56331688     0.77500
O803        O  0.19979319  0.76681303  0.79907517    -0.71600
O804        O  0.30612083  0.80986663  0.70138957    -0.71800
O805        O  0.19978483  0.76680654  0.70091643    -0.71700
O806        O  0.30612677  0.80986817  0.79859058    -0.71700
O807        O  0.30011652  0.73329603  0.79907124    -0.71700
O808        O  0.19377406  0.69023417  0.70139804    -0.71700
O809        O  0.30011122  0.73329498  0.70091164    -0.71600
O810        O  0.19378268  0.69024072  0.79859906    -0.71800
V811        V  0.25311828  0.78696757  0.74999290     1.35200
V812        V  0.24678435  0.71313732  0.74999491     1.35200
C813        C  0.17649577  0.71967081  0.81335643     0.77600
C814        C  0.32340817  0.78043795  0.68663016     0.77700
C815        C  0.17648541  0.71966262  0.68663940     0.77600
C816        C  0.32341499  0.78043905  0.81334889     0.77500
O817        O  0.93306720  0.19988180  0.29903522    -0.71600
O818        O  0.99629733  0.30622761  0.20135381    -0.71800
O819        O  0.93306370  0.19988320  0.20087835    -0.71700
O820        O  0.99629880  0.30622790  0.29855603    -0.71700
O821        O  0.56689413  0.30028238  0.29903335    -0.71700
O822        O  0.50365496  0.19392974  0.20135444    -0.71700
O823        O  0.56689174  0.30028059  0.20087363    -0.71600
O824        O  0.50365951  0.19393048  0.29855723    -0.71800
V825        V  0.96621492  0.25321681  0.24995585     1.35200
V826        V  0.53374340  0.24694477  0.24995465     1.35200
C827        C  0.95693256  0.17661190  0.31331501     0.77600
C828        C  0.54302279  0.32354663  0.18659289     0.77700
C829        C  0.95692703  0.17661233  0.18659871     0.77600
C830        C  0.54302508  0.32354784  0.31331502     0.77500
O831        O  0.80975962  0.30621317  0.04856977    -0.71600
O832        O  0.76670436  0.19987603  0.45089042    -0.71800
O833        O  0.80976615  0.30621454  0.45136853    -0.71700
O834        O  0.76669709  0.19987516  0.04905039    -0.71700
O835        O  0.69012933  0.19387174  0.04856632    -0.71700
O836        O  0.73319520  0.30020400  0.45088173    -0.71700
O837        O  0.69013510  0.19386924  0.45136557    -0.71600
O838        O  0.73319038  0.30020676  0.04904086    -0.71800
V839        V  0.78686116  0.25320650  0.99996964     1.35200
V840        V  0.71303365  0.24687603  0.49996364     1.35200
C841        C  0.78033122  0.32350282  0.06332414     0.77600
C842        C  0.71956276  0.17657994  0.43660879     0.77700
C843        C  0.78033826  0.32350218  0.43660575     0.77600
C844        C  0.71955453  0.17658135  0.06332894     0.77500
O845        O  0.50361341  0.30987380  0.04859211    -0.71600
O846        O  0.56687139  0.26679825  0.45091720    -0.71800
O847        O  0.50361994  0.30987695  0.45139152    -0.71700
O848        O  0.56686790  0.26680024  0.04907642    -0.71700
O849        O  0.99628277  0.19022848  0.04859607    -0.71700
O850        O  0.93303422  0.23330564  0.45091064    -0.71700
O851        O  0.99628577  0.19022706  0.45139529    -0.71600
O852        O  0.93302851  0.23330189  0.04906932    -0.71800
V853        V  0.53371078  0.28696571  0.49999432     1.35200
V854        V  0.96619031  0.21313734  0.49999287     1.35200
C855        C  0.95688594  0.28044564  0.06334665     0.77600
C856        C  0.54301245  0.21965412  0.43663894     0.77700
C857        C  0.95689402  0.28045042  0.43663319     0.77600
C858        C  0.54300875  0.21965633  0.06335430     0.77500
C859        C  0.87189331  0.06832755  0.09362901     0.03300
C860        C  0.90417543  0.04610924  0.09007508    -0.12900
C861        C  0.94291389  0.05708170  0.12498596     0.00800
C862        C  0.95389979  0.09583330  0.15988577    -0.11400
C863        C  0.93171698  0.12814453  0.15630191     0.03300
C864        C  0.88767140  0.11238612  0.12495857    -0.10800
H865        H  0.89687609  0.01713245  0.06192526     0.08900
H866        H  0.98286845  0.10312637  0.18804320     0.06400
H867        H  0.86644328  0.13364126  0.12494718     0.06300
C868        C  0.56821663  0.37200800  0.15628470     0.03300
C869        C  0.61227105  0.38778608  0.12495006    -0.12900
C870        C  0.62803244  0.43183843  0.09361314     0.00800
C871        C  0.59572560  0.45402784  0.09004110    -0.11400
C872        C  0.55697216  0.44303301  0.12494283     0.03300
C873        C  0.54600346  0.40429265  0.15984936    -0.10800
H874        H  0.63352081  0.36655301  0.12495329     0.08900
H875        H  0.60302110  0.48300506  0.06189107     0.06400
H876        H  0.51703031  0.39699223  0.18800327     0.06300
C877        C  0.97216198  0.02782859  0.12498615     0.02500
C878        C  0.52772413  0.05561472  0.12498342     0.02500
C879        C  0.55550039  0.02783793  0.12498315     0.02500
C880        C  0.52771589  0.47227707  0.12495563     0.02500
C881        C  0.97215344  0.44448851  0.12495654     0.02500
C882        C  0.94437516  0.47226536  0.12497984     0.02500
C883        C  0.80358425  0.43177060  0.15630782     0.03300
C884        C  0.85808990  0.45397420  0.15988563    -0.12900
C885        C  0.88586235  0.44300570  0.12498206     0.00800
C886        C  0.85809189  0.40426991  0.09006922    -0.11400
C887        C  0.80358523  0.37196544  0.09362935     0.03300
C888        C  0.77529477  0.38772219  0.12496372    -0.10800
H889        H  0.87977007  0.48294548  0.18804229     0.08900
H890        H  0.87977400  0.39698733  0.06191376     0.06400
H891        H  0.73280561  0.36647644  0.12495610     0.06300
C892        C  0.56821470  0.19640156  0.09365390     0.03300
C893        C  0.61226139  0.22469391  0.12499956    -0.12900
C894        C  0.62802156  0.19640526  0.15633470     0.00800
C895        C  0.59571994  0.14189714  0.15989479    -0.11400
C896        C  0.55698464  0.11412655  0.12498155     0.03300
C897        C  0.54601700  0.14189714  0.09007480    -0.10800
H898        H  0.63350296  0.26718337  0.12500738     0.08900
H899        H  0.60300441  0.12021423  0.18804916     0.06400
H900        H  0.51704750  0.12021553  0.06191718     0.06300
C901        C  0.69628011  0.06830607  0.15631691     0.03300
C902        C  0.72457652  0.11235350  0.12497186    -0.12900
C903        C  0.69629339  0.12812122  0.09363884     0.00800
C904        C  0.64178533  0.09582924  0.09008267    -0.11400
C905        C  0.61401115  0.05709495  0.12499503     0.03300
C906        C  0.64177669  0.04611449  0.15989764    -0.10800
H907        H  0.76706554  0.13358890  0.12496155     0.08900
H908        H  0.62010543  0.10311817  0.06192903     0.06400
H909        H  0.62009218  0.01713990  0.18805101     0.06300
C910        C  0.93167542  0.30369972  0.09364017     0.03300
C911        C  0.88763100  0.27540700  0.12498856    -0.12900
C912        C  0.87186814  0.30369512  0.15631982     0.00800
C913        C  0.90416514  0.35820445  0.15987212    -0.11400
C914        C  0.94289618  0.38597555  0.12495528     0.03300
C915        C  0.95386719  0.35820375  0.09005337    -0.10800
H916        H  0.86639388  0.23291702  0.12500257     0.08900
H917        H  0.89688107  0.37988765  0.18802556     0.06400
H918        H  0.98283424  0.37988374  0.06189381     0.06300
C919        C  0.87189593  0.06832514  0.40628542     0.03300
C920        C  0.90417918  0.04610942  0.40984856    -0.12900
C921        C  0.94292356  0.05708458  0.37494552     0.00800
C922        C  0.95391717  0.09584012  0.34004555    -0.11400
C923        C  0.93172674  0.12814593  0.34361732     0.03300
C924        C  0.88767510  0.11238275  0.37495277    -0.10800
H925        H  0.89687705  0.01713256  0.43800055     0.08900
H926        H  0.98289352  0.10313739  0.31189602     0.06400
H927        H  0.86644271  0.13363377  0.37495599     0.06300
C928        C  0.56821840  0.37200769  0.34362459     0.03300
C929        C  0.61227584  0.38778459  0.37495578    -0.12900
C930        C  0.62803707  0.43183310  0.40629592     0.00800
C931        C  0.59573000  0.45402020  0.40987462    -0.11400
C932        C  0.55697829  0.44303266  0.37497428     0.03300
C933        C  0.54600306  0.40429182  0.34006664    -0.10800
H934        H  0.63352726  0.36655338  0.37494813     0.08900
H935        H  0.60302470  0.48299175  0.43802902     0.06400
H936        H  0.51702493  0.39699179  0.31191668     0.06300
C937        C  0.97217066  0.02783067  0.37495471     0.02500
C938        C  0.52773194  0.05561755  0.37497066     0.02500
C939        C  0.55550983  0.02784108  0.37495650     0.02500
C940        C  0.52772523  0.47227965  0.37497322     0.02500
C941        C  0.97216427  0.44449129  0.37498317     0.02500
C942        C  0.94438463  0.47226720  0.37495736     0.02500
C943        C  0.69628985  0.06830879  0.34361931     0.03300
C944        C  0.72458731  0.11235369  0.37496637    -0.12900
C945        C  0.69630429  0.12811854  0.40630170     0.00800
C946        C  0.64179670  0.09582455  0.40985976    -0.11400
C947        C  0.61402122  0.05709738  0.37494303     0.03300
C948        C  0.64178653  0.04612118  0.34003714    -0.10800
H949        H  0.76707621  0.13358936  0.37497638     0.08900
H950        H  0.62011805  0.10310882  0.43801707     0.06400
H951        H  0.62010182  0.01715118  0.31188112     0.06300
C952        C  0.56821735  0.19639993  0.40633586     0.03300
C953        C  0.61227125  0.22469764  0.37499900    -0.12900
C954        C  0.62803082  0.19641441  0.34365748     0.00800
C955        C  0.59572537  0.14190938  0.34008283    -0.11400
C956        C  0.55698847  0.11412982  0.37499020     0.03300
C957        C  0.54601169  0.14189178  0.40989979    -0.10800
H958        H  0.63351846  0.26718763  0.37500177     0.08900
H959        H  0.60300921  0.12023415  0.31192125     0.06400
H960        H  0.51703366  0.12020282  0.43804839     0.06300
C961        C  0.80359475  0.43177050  0.34361801     0.03300
C962        C  0.85810095  0.45397555  0.34004329    -0.12900
C963        C  0.88587193  0.44300660  0.37495010     0.00800
C964        C  0.85809990  0.40427067  0.40986320    -0.11400
C965        C  0.80359393  0.37196476  0.40629929     0.03300
C966        C  0.77530466  0.38772123  0.37496170    -0.10800
H967        H  0.87978175  0.48294811  0.31188782     0.08900
H968        H  0.87978037  0.39698862  0.43802156     0.06400
H969        H  0.73281573  0.36647506  0.37496673     0.06300
C970        C  0.93168955  0.30370619  0.40633100     0.03300
C971        C  0.95388908  0.35821294  0.40990305    -0.12900
C972        C  0.94291159  0.38597866  0.37499674     0.00800
C973        C  0.90417941  0.35820226  0.34008424    -0.11400
C974        C  0.87187869  0.30369563  0.34365121     0.03300
C975        C  0.88763969  0.27541057  0.37498968    -0.10800
H976        H  0.98286225  0.37989817  0.43805621     0.08900
H977        H  0.89689494  0.37988020  0.31192521     0.06400
H978        H  0.86639574  0.23292057  0.37498761     0.06300
O979        O  0.76668369  0.06695290  0.29904596    -0.71600
O980        O  0.80975144  0.00370171  0.20136092    -0.71800
O981        O  0.76667663  0.06695374  0.20088832    -0.71700
O982        O  0.80975970  0.00370027  0.29856056    -0.71700
O983        O  0.73318944  0.43311384  0.29904644    -0.71700
O984        O  0.69010660  0.49636683  0.20136794    -0.71700
O985        O  0.73318345  0.43311216  0.20088712    -0.71600
O986        O  0.69011156  0.49636858  0.29856808    -0.71800
V987        V  0.78684581  0.03379414  0.24996413     1.35200
V988        V  0.71301882  0.46627226  0.24996746     1.35200
C989        C  0.71954044  0.04309633  0.31332330     0.77600
C990        C  0.78032600  0.45697366  0.18660641     0.77700
C991        C  0.71953304  0.04309503  0.18661220     0.77600
C992        C  0.78033492  0.45697360  0.31331950     0.77500
O993        O  0.69381703  0.00377265  0.04855174    -0.71600
O994        O  0.80017211  0.06700425  0.45087366    -0.71800
O995        O  0.69382236  0.00377047  0.45134893    -0.71700
O996        O  0.80016987  0.06700578  0.04903382    -0.71700
O997        O  0.80611401  0.49640859  0.04855812    -0.71700
O998        O  0.69977067  0.43317530  0.45087828    -0.71700
O999        O  0.80611417  0.49640591  0.45135549    -0.71600
O1000       O  0.69976842  0.43317932  0.04903531    -0.71800
V1001       V  0.74683437  0.03385677  0.99995221     1.35200
V1002       V  0.75310343  0.46632551  0.49995679     1.35200
C1003       C  0.67649810  0.45704499  0.06331144     0.77600
C1004       C  0.82343557  0.04313272  0.43659397     0.77700
C1005       C  0.67650324  0.45704141  0.43659498     0.77600
C1006       C  0.82343444  0.04313548  0.06331693     0.77500
O1007       O  0.69979282  0.26681275  0.29907505    -0.71600
O1008       O  0.80612065  0.30986648  0.20138953    -0.71800
O1009       O  0.69978472  0.26680635  0.20091616    -0.71700
O1010       O  0.80612664  0.30986804  0.29859057    -0.71700
O1011       O  0.80011629  0.23329593  0.29907123    -0.71700
O1012       O  0.69377388  0.19023410  0.20139814    -0.71700
O1013       O  0.80011110  0.23329482  0.20091159    -0.71600
O1014       O  0.69378263  0.19024073  0.29859914    -0.71800
V1015       V  0.75311811  0.28696744  0.24999284     1.35200
V1016       V  0.74678425  0.21313734  0.24999490     1.35200
C1017       C  0.67649559  0.21967069  0.31335648     0.77600
C1018       C  0.82340806  0.28043780  0.18663018     0.77700
C1019       C  0.67648513  0.21966242  0.18663942     0.77600
C1020       C  0.82341472  0.28043890  0.31334898     0.77500
O1021       O  0.93306709  0.19988166  0.79903516    -0.71600
O1022       O  0.99629738  0.30622775  0.70135378    -0.71800
O1023       O  0.93306376  0.19988327  0.70087822    -0.71700
O1024       O  0.99629877  0.30622780  0.79855604    -0.71700
O1025       O  0.56689413  0.30028233  0.79903322    -0.71700
O1026       O  0.50365499  0.19392974  0.70135443    -0.71700
O1027       O  0.56689169  0.30028055  0.70087359    -0.71600
O1028       O  0.50365953  0.19393055  0.79855716    -0.71800
V1029       V  0.96621490  0.25321679  0.74995581     1.35200
V1030       V  0.53374339  0.24694476  0.74995459     1.35200
C1031       C  0.95693258  0.17661196  0.81331505     0.77600
C1032       C  0.54302277  0.32354659  0.68659278     0.77700
C1033       C  0.95692695  0.17661217  0.68659888     0.77600
C1034       C  0.54302504  0.32354773  0.81331503     0.77500
O1035       O  0.80975968  0.30621313  0.54856981    -0.71600
O1036       O  0.76670433  0.19987618  0.95089046    -0.71800
O1037       O  0.80976604  0.30621447  0.95136848    -0.71700
O1038       O  0.76669720  0.19987531  0.54905052    -0.71700
O1039       O  0.69012937  0.19387183  0.54856628    -0.71700
O1040       O  0.73319508  0.30020395  0.95088194    -0.71700
O1041       O  0.69013508  0.19386918  0.95136562    -0.71600
O1042       O  0.73319040  0.30020671  0.54904075    -0.71800
V1043       V  0.78686121  0.25320649  0.49996966     1.35200
V1044       V  0.71303365  0.24687598  0.99996369     1.35200
C1045       C  0.78033122  0.32350272  0.56332413     0.77600
C1046       C  0.71956281  0.17658006  0.93660876     0.77700
C1047       C  0.78033811  0.32350206  0.93660577     0.77600
C1048       C  0.71955453  0.17658135  0.56332881     0.77500
O1049       O  0.50361338  0.30987385  0.54859221    -0.71600
O1050       O  0.56687138  0.26679820  0.95091717    -0.71800
O1051       O  0.50361981  0.30987685  0.95139149    -0.71700
O1052       O  0.56686793  0.26680021  0.54907652    -0.71700
O1053       O  0.99628273  0.19022852  0.54859609    -0.71700
O1054       O  0.93303409  0.23330557  0.95091066    -0.71700
O1055       O  0.99628585  0.19022702  0.95139522    -0.71600
O1056       O  0.93302845  0.23330197  0.54906942    -0.71800
V1057       V  0.53371077  0.28696570  0.99999427     1.35200
V1058       V  0.96619036  0.21313731  0.99999284     1.35200
C1059       C  0.95688589  0.28044574  0.56334668     0.77600
C1060       C  0.54301244  0.21965404  0.93663889     0.77700
C1061       C  0.95689395  0.28045031  0.93663303     0.77600
C1062       C  0.54300873  0.21965631  0.56335437     0.77500
C1063       C  0.87189323  0.06832738  0.59362903     0.03300
C1064       C  0.90417539  0.04610923  0.59007516    -0.12900
C1065       C  0.94291400  0.05708172  0.62498593     0.00800
C1066       C  0.95389978  0.09583319  0.65988589    -0.11400
C1067       C  0.93171698  0.12814437  0.65630207     0.03300
C1068       C  0.88767131  0.11238592  0.62495871    -0.10800
H1069       H  0.89687630  0.01713253  0.56192467     0.08900
H1070       H  0.98286849  0.10312615  0.68804372     0.06400
H1071       H  0.86644317  0.13364104  0.62494732     0.06300
C1072       C  0.56821668  0.37200797  0.65628477     0.03300
C1073       C  0.61227099  0.38778600  0.62495001    -0.12900
C1074       C  0.62803242  0.43183836  0.59361320     0.00800
C1075       C  0.59572563  0.45402791  0.59004119    -0.11400
C1076       C  0.55697224  0.44303301  0.62494304     0.03300
C1077       C  0.54600346  0.40429259  0.65984956    -0.10800
H1078       H  0.63352058  0.36655281  0.62495276     0.08900
H1079       H  0.60302127  0.48300519  0.56189165     0.06400
H1080       H  0.51703080  0.39699253  0.68800367     0.06300
C1081       C  0.97216201  0.02782860  0.62498618     0.02500
C1082       C  0.52772418  0.05561476  0.62498340     0.02500
C1083       C  0.55550040  0.02783793  0.62498323     0.02500
C1084       C  0.52771595  0.47227711  0.62495570     0.02500
C1085       C  0.97215352  0.44448858  0.62495672     0.02500
C1086       C  0.94437518  0.47226540  0.62497985     0.02500
C1087       C  0.80358421  0.43177060  0.65630795     0.03300
C1088       C  0.85808989  0.45397440  0.65988573    -0.12900
C1089       C  0.88586229  0.44300570  0.62498233     0.00800
C1090       C  0.85809185  0.40426984  0.59006942    -0.11400
C1091       C  0.80358507  0.37196533  0.59362944     0.03300
C1092       C  0.77529468  0.38772218  0.62496377    -0.10800
H1093       H  0.87977001  0.48294565  0.68804237     0.08900
H1094       H  0.87977388  0.39698716  0.56191454     0.06400
H1095       H  0.73280547  0.36647625  0.62495671     0.06300
C1096       C  0.56821472  0.19640149  0.59365384     0.03300
C1097       C  0.61226145  0.22469388  0.62499948    -0.12900
C1098       C  0.62802161  0.19640527  0.65633464     0.00800
C1099       C  0.59571994  0.14189715  0.65989474    -0.11400
C1100       C  0.55698474  0.11412656  0.62498138     0.03300
C1101       C  0.54601697  0.14189709  0.59007475    -0.10800
H1102       H  0.63350297  0.26718333  0.62500726     0.08900
H1103       H  0.60300442  0.12021428  0.68804905     0.06400
H1104       H  0.51704741  0.12021544  0.56191708     0.06300
C1105       C  0.69628015  0.06830610  0.65631701     0.03300
C1106       C  0.72457647  0.11235354  0.62497186    -0.12900
C1107       C  0.69629343  0.12812125  0.59363884     0.00800
C1108       C  0.64178536  0.09582918  0.59008280    -0.11400
C1109       C  0.61401119  0.05709492  0.62499520     0.03300
C1110       C  0.64177673  0.04611445  0.65989761    -0.10800
H1111       H  0.76706582  0.13358927  0.62496140     0.08900
H1112       H  0.62010534  0.10311762  0.56192899     0.06400
H1113       H  0.62009183  0.01713932  0.68805101     0.06300
C1114       C  0.93167557  0.30369997  0.59364015     0.03300
C1115       C  0.88763097  0.27540697  0.62498849    -0.12900
C1116       C  0.87186820  0.30369512  0.65631973     0.00800
C1117       C  0.90416521  0.35820438  0.65987221    -0.11400
C1118       C  0.94289640  0.38597561  0.62495532     0.03300
C1119       C  0.95386741  0.35820398  0.59005332    -0.10800
H1120       H  0.86639392  0.23291766  0.62500222     0.08900
H1121       H  0.89688150  0.37988697  0.68802571     0.06400
H1122       H  0.98283448  0.37988402  0.56189378     0.06300
C1123       C  0.87189596  0.06832510  0.90628540     0.03300
C1124       C  0.90417923  0.04610944  0.90984853    -0.12900
C1125       C  0.94292358  0.05708455  0.87494531     0.00800
C1126       C  0.95391725  0.09584020  0.84004544    -0.11400
C1127       C  0.93172672  0.12814587  0.84361711     0.03300
C1128       C  0.88767507  0.11238270  0.87495274    -0.10800
H1129       H  0.89687716  0.01713261  0.93800065     0.08900
H1130       H  0.98289359  0.10313739  0.81189533     0.06400
H1131       H  0.86644259  0.13363361  0.87495604     0.06300
C1132       C  0.56821840  0.37200751  0.84362487     0.03300
C1133       C  0.61227593  0.38778458  0.87495591    -0.12900
C1134       C  0.62803713  0.43183314  0.90629595     0.00800
C1135       C  0.59573010  0.45402031  0.90987472    -0.11400
C1136       C  0.55697842  0.44303273  0.87497448     0.03300
C1137       C  0.54600313  0.40429179  0.84006674    -0.10800
H1138       H  0.63352720  0.36655323  0.87494877     0.08900
H1139       H  0.60302487  0.48299196  0.93802907     0.06400
H1140       H  0.51702499  0.39699153  0.81191737     0.06300
C1141       C  0.97217071  0.02783072  0.87495472     0.02500
C1142       C  0.52773198  0.05561757  0.87497064     0.02500
C1143       C  0.55550982  0.02784107  0.87495643     0.02500
C1144       C  0.52772528  0.47227971  0.87497340     0.02500
C1145       C  0.97216434  0.44449142  0.87498323     0.02500
C1146       C  0.94438467  0.47226728  0.87495736     0.02500
C1147       C  0.69628979  0.06830890  0.84361924     0.03300
C1148       C  0.72458729  0.11235368  0.87496637    -0.12900
C1149       C  0.69630431  0.12811860  0.90630181     0.00800
C1150       C  0.64179674  0.09582465  0.90985985    -0.11400
C1151       C  0.61402116  0.05709732  0.87494326     0.03300
C1152       C  0.64178648  0.04612122  0.84003730    -0.10800
H1153       H  0.76707619  0.13358951  0.87497580     0.08900
H1154       H  0.62011797  0.10310879  0.93801766     0.06400
H1155       H  0.62010164  0.01715119  0.81188115     0.06300
C1156       C  0.56821729  0.19639981  0.90633568     0.03300
C1157       C  0.61227125  0.22469757  0.87499896    -0.12900
C1158       C  0.62803085  0.19641432  0.84365737     0.00800
C1159       C  0.59572534  0.14190926  0.84008270    -0.11400
C1160       C  0.55698855  0.11412975  0.87499000     0.03300
C1161       C  0.54601178  0.14189163  0.90989965    -0.10800
H1162       H  0.63351835  0.26718757  0.87500176     0.08900
H1163       H  0.60300917  0.12023366  0.81192110     0.06400
H1164       H  0.51703356  0.12020248  0.93804784     0.06300
C1165       C  0.80359475  0.43177048  0.84361807     0.03300
C1166       C  0.85810098  0.45397558  0.84004336    -0.12900
C1167       C  0.88587191  0.44300660  0.87495007     0.00800
C1168       C  0.85809981  0.40427062  0.90986322    -0.11400
C1169       C  0.80359377  0.37196469  0.90629930     0.03300
C1170       C  0.77530464  0.38772120  0.87496176    -0.10800
H1171       H  0.87978178  0.48294799  0.81188786     0.08900
H1172       H  0.87978007  0.39698815  0.93802103     0.06400
H1173       H  0.73281565  0.36647539  0.87496723     0.06300
C1174       C  0.93168959  0.30370644  0.90633100     0.03300
C1175       C  0.95388900  0.35821314  0.90990311    -0.12900
C1176       C  0.94291164  0.38597890  0.87499666     0.00800
C1177       C  0.90417947  0.35820246  0.84008420    -0.11400
C1178       C  0.87187881  0.30369592  0.84365110     0.03300
C1179       C  0.88763972  0.27541069  0.87498968    -0.10800
H1180       H  0.98286212  0.37989836  0.93805634     0.08900
H1181       H  0.89689520  0.37988059  0.81192474     0.06400
H1182       H  0.86639626  0.23292128  0.87498755     0.06300
O1183       O  0.76668365  0.06695294  0.79904594    -0.71600
O1184       O  0.80975135  0.00370176  0.70136085    -0.71800
O1185       O  0.76667672  0.06695373  0.70088824    -0.71700
O1186       O  0.80975981  0.00370037  0.79856048    -0.71700
O1187       O  0.73318944  0.43311397  0.79904653    -0.71700
O1188       O  0.69010651  0.49636676  0.70136796    -0.71700
O1189       O  0.73318346  0.43311205  0.70088719    -0.71600
O1190       O  0.69011150  0.49636857  0.79856825    -0.71800
V1191       V  0.78684584  0.03379421  0.74996410     1.35200
V1192       V  0.71301878  0.46627223  0.74996750     1.35200
C1193       C  0.71954041  0.04309633  0.81332338     0.77600
C1194       C  0.78032603  0.45697374  0.68660645     0.77700
C1195       C  0.71953309  0.04309508  0.68661224     0.77600
C1196       C  0.78033499  0.45697365  0.81331948     0.77500
O1197       O  0.69381691  0.00377261  0.54855176    -0.71600
O1198       O  0.80017210  0.06700420  0.95087353    -0.71800
O1199       O  0.69382238  0.00377054  0.95134894    -0.71700
O1200       O  0.80016980  0.06700575  0.54903393    -0.71700
O1201       O  0.80611404  0.49640861  0.54855792    -0.71700
O1202       O  0.69977076  0.43317526  0.95087827    -0.71700
O1203       O  0.80611435  0.49640602  0.95135567    -0.71600
O1204       O  0.69976852  0.43317938  0.54903517    -0.71800
V1205       V  0.74683433  0.03385673  0.49995225     1.35200
V1206       V  0.75310347  0.46632553  0.99995690     1.35200
C1207       C  0.67649811  0.45704497  0.56331143     0.77600
C1208       C  0.82343560  0.04313269  0.93659395     0.77700
C1209       C  0.67650305  0.45704117  0.93659521     0.77600
C1210       C  0.82343448  0.04313549  0.56331683     0.77500
O1211       O  0.69979297  0.26681284  0.79907508    -0.71600
O1212       O  0.80612065  0.30986646  0.70138962    -0.71800
O1213       O  0.69978465  0.26680632  0.70091632    -0.71700
O1214       O  0.80612660  0.30986806  0.79859066    -0.71700
O1215       O  0.80011632  0.23329596  0.79907118    -0.71700
O1216       O  0.69377392  0.19023410  0.70139809    -0.71700
O1217       O  0.80011105  0.23329479  0.70091153    -0.71600
O1218       O  0.69378254  0.19024058  0.79859912    -0.71800
V1219       V  0.75311811  0.28696746  0.74999290     1.35200
V1220       V  0.74678422  0.21313728  0.74999490     1.35200
C1221       C  0.67649559  0.21967067  0.81335638     0.77600
C1222       C  0.82340808  0.28043780  0.68663022     0.77700
C1223       C  0.67648517  0.21966244  0.68663941     0.77600
C1224       C  0.82341488  0.28043900  0.81334880     0.77500
O1225       O  0.93306718  0.69988175  0.29903521    -0.71600
O1226       O  0.99629721  0.80622753  0.20135385    -0.71800
O1227       O  0.93306375  0.69988308  0.20087833    -0.71700
O1228       O  0.99629890  0.80622786  0.29855607    -0.71700
O1229       O  0.56689414  0.80028230  0.29903335    -0.71700
O1230       O  0.50365491  0.69392963  0.20135440    -0.71700
O1231       O  0.56689173  0.80028055  0.20087362    -0.71600
O1232       O  0.50365950  0.69393040  0.29855724    -0.71800
V1233       V  0.96621488  0.75321674  0.24995586     1.35200
V1234       V  0.53374340  0.74694468  0.24995462     1.35200
C1235       C  0.95693255  0.67661186  0.31331500     0.77600
C1236       C  0.54302281  0.82354661  0.18659292     0.77700
C1237       C  0.95692713  0.67661226  0.18659870     0.77600
C1238       C  0.54302510  0.82354778  0.31331503     0.77500
O1239       O  0.80975977  0.80621327  0.04856972    -0.71600
O1240       O  0.76670432  0.69987598  0.45089052    -0.71800
O1241       O  0.80976610  0.80621450  0.45136853    -0.71700
O1242       O  0.76669719  0.69987536  0.04905033    -0.71700
O1243       O  0.69012941  0.69387191  0.04856631    -0.71700
O1244       O  0.73319523  0.80020421  0.45088185    -0.71700
O1245       O  0.69013510  0.69386935  0.45136551    -0.71600
O1246       O  0.73319054  0.80020695  0.04904080    -0.71800
V1247       V  0.78686126  0.75320664  0.99996960     1.35200
V1248       V  0.71303371  0.74687618  0.49996365     1.35200
C1249       C  0.78033134  0.82350282  0.06332420     0.77600
C1250       C  0.71956278  0.67658007  0.43660872     0.77700
C1251       C  0.78033821  0.82350213  0.43660565     0.77600
C1252       C  0.71955458  0.67658147  0.06332885     0.77500
O1253       O  0.50361350  0.80987386  0.04859212    -0.71600
O1254       O  0.56687138  0.76679816  0.45091719    -0.71800
O1255       O  0.50362005  0.80987696  0.45139162    -0.71700
O1256       O  0.56686796  0.76680023  0.04907641    -0.71700
O1257       O  0.99628283  0.69022860  0.04859596    -0.71700
O1258       O  0.93303417  0.73330571  0.45091069    -0.71700
O1259       O  0.99628579  0.69022698  0.45139514    -0.71600
O1260       O  0.93302863  0.73330205  0.04906937    -0.71800
V1261       V  0.53371081  0.78696568  0.49999431     1.35200
V1262       V  0.96619031  0.71313735  0.49999282     1.35200
C1263       C  0.95688605  0.78044578  0.06334669     0.77600
C1264       C  0.54301243  0.71965403  0.43663895     0.77700
C1265       C  0.95689405  0.78045046  0.43663319     0.77600
C1266       C  0.54300877  0.71965634  0.06335426     0.77500
C1267       C  0.87189339  0.56832744  0.09362899     0.03300
C1268       C  0.90417544  0.54610916  0.09007507    -0.12900
C1269       C  0.94291393  0.55708168  0.12498594     0.00800
C1270       C  0.95389984  0.59583325  0.15988580    -0.11400
C1271       C  0.93171709  0.62814440  0.15630196     0.03300
C1272       C  0.88767150  0.61238601  0.12495863    -0.10800
H1273       H  0.89687611  0.51713236  0.06192526     0.08900
H1274       H  0.98286845  0.60312635  0.18804321     0.06400
H1275       H  0.86644376  0.63364107  0.12494719     0.06300
C1276       C  0.56821670  0.87200793  0.15628478     0.03300
C1277       C  0.61227110  0.88778602  0.12495003    -0.12900
C1278       C  0.62803246  0.93183835  0.09361317     0.00800
C1279       C  0.59572558  0.95402779  0.09004115    -0.11400
C1280       C  0.55697215  0.94303298  0.12494295     0.03300
C1281       C  0.54600343  0.90429258  0.15984945    -0.10800
H1282       H  0.63352124  0.86655284  0.12495322     0.08900
H1283       H  0.60302110  0.98300504  0.06189105     0.06400
H1284       H  0.51703062  0.89699258  0.18800396     0.06300
C1285       C  0.97216202  0.52782859  0.12498617     0.02500
C1286       C  0.52772410  0.55561471  0.12498340     0.02500
C1287       C  0.55550041  0.52783797  0.12498315     0.02500
C1288       C  0.52771587  0.97227704  0.12495560     0.02500
C1289       C  0.97215340  0.94448859  0.12495650     0.02500
C1290       C  0.94437515  0.97226541  0.12497980     0.02500
C1291       C  0.80358443  0.93177070  0.15630779     0.03300
C1292       C  0.85809005  0.95397436  0.15988560    -0.12900
C1293       C  0.88586239  0.94300569  0.12498209     0.00800
C1294       C  0.85809196  0.90427001  0.09006912    -0.11400
C1295       C  0.80358536  0.87196548  0.09362929     0.03300
C1296       C  0.77529494  0.88772229  0.12496357    -0.10800
H1297       H  0.87977013  0.98294555  0.18804210     0.08900
H1298       H  0.87977402  0.89698738  0.06191384     0.06400
H1299       H  0.73280605  0.86647650  0.12495622     0.06300
C1300       C  0.56821468  0.69640150  0.09365386     0.03300
C1301       C  0.61226138  0.72469383  0.12499952    -0.12900
C1302       C  0.62802151  0.69640519  0.15633476     0.00800
C1303       C  0.59571996  0.64189706  0.15989488    -0.11400
C1304       C  0.55698461  0.61412651  0.12498158     0.03300
C1305       C  0.54601700  0.64189709  0.09007474    -0.10800
H1306       H  0.63350300  0.76718328  0.12500727     0.08900
H1307       H  0.60300433  0.62021424  0.18804937     0.06400
H1308       H  0.51704754  0.62021550  0.06191704     0.06300
C1309       C  0.69628019  0.56830602  0.15631704     0.03300
C1310       C  0.72457651  0.61235353  0.12497196    -0.12900
C1311       C  0.69629346  0.62812126  0.09363887     0.00800
C1312       C  0.64178533  0.59582918  0.09008274    -0.11400
C1313       C  0.61401119  0.55709491  0.12499522     0.03300
C1314       C  0.64177675  0.54611449  0.15989780    -0.10800
H1315       H  0.76706590  0.63358946  0.12496179     0.08900
H1316       H  0.62010535  0.60311768  0.06192896     0.06400
H1317       H  0.62009191  0.51713918  0.18805108     0.06300
C1318       C  0.93167559  0.80369994  0.09364015     0.03300
C1319       C  0.88763104  0.77540697  0.12498855    -0.12900
C1320       C  0.87186822  0.80369518  0.15631976     0.00800
C1321       C  0.90416512  0.85820444  0.15987208    -0.11400
C1322       C  0.94289623  0.88597564  0.12495521     0.03300
C1323       C  0.95386731  0.85820390  0.09005332    -0.10800
H1324       H  0.86639426  0.73291767  0.12500257     0.08900
H1325       H  0.89688096  0.87988732  0.18802541     0.06400
H1326       H  0.98283437  0.87988390  0.06189375     0.06300
C1327       C  0.87189597  0.56832510  0.40628536     0.03300
C1328       C  0.90417920  0.54610938  0.40984857    -0.12900
C1329       C  0.94292344  0.55708441  0.37494547     0.00800
C1330       C  0.95391711  0.59584008  0.34004561    -0.11400
C1331       C  0.93172672  0.62814590  0.34361731     0.03300
C1332       C  0.88767508  0.61238273  0.37495270    -0.10800
H1333       H  0.89687701  0.51713246  0.43800065     0.08900
H1334       H  0.98289342  0.60313730  0.31189607     0.06400
H1335       H  0.86644272  0.63363367  0.37495599     0.06300
C1336       C  0.56821842  0.87200765  0.34362463     0.03300
C1337       C  0.61227587  0.88778460  0.37495583    -0.12900
C1338       C  0.62803710  0.93183312  0.40629587     0.00800
C1339       C  0.59572997  0.95402016  0.40987463    -0.11400
C1340       C  0.55697831  0.94303268  0.37497423     0.03300
C1341       C  0.54600304  0.90429178  0.34006662    -0.10800
H1342       H  0.63352741  0.86655342  0.37494819     0.08900
H1343       H  0.60302460  0.98299170  0.43802904     0.06400
H1344       H  0.51702493  0.89699172  0.31191664     0.06300
C1345       C  0.97217067  0.52783066  0.37495473     0.02500
C1346       C  0.52773195  0.55561757  0.37497064     0.02500
C1347       C  0.55550979  0.52784106  0.37495650     0.02500
C1348       C  0.52772527  0.97227972  0.37497316     0.02500
C1349       C  0.97216436  0.94449144  0.37498308     0.02500
C1350       C  0.94438467  0.97226728  0.37495737     0.02500
C1351       C  0.69628979  0.56830873  0.34361921     0.03300
C1352       C  0.72458733  0.61235373  0.37496642    -0.12900
C1353       C  0.69630434  0.62811861  0.40630173     0.00800
C1354       C  0.64179675  0.59582459  0.40985974    -0.11400
C1355       C  0.61402117  0.55709722  0.37494301     0.03300
C1356       C  0.64178647  0.54612113  0.34003703    -0.10800
H1357       H  0.76707627  0.63358942  0.37497643     0.08900
H1358       H  0.62011814  0.60310887  0.43801705     0.06400
H1359       H  0.62010150  0.51715050  0.31188098     0.06300
C1360       C  0.56821727  0.69639975  0.40633593     0.03300
C1361       C  0.61227121  0.72469752  0.37499902    -0.12900
C1362       C  0.62803081  0.69641430  0.34365741     0.00800
C1363       C  0.59572535  0.64190928  0.34008279    -0.11400
C1364       C  0.55698846  0.61412976  0.37499017     0.03300
C1365       C  0.54601169  0.64189163  0.40989981    -0.10800
H1366       H  0.63351840  0.76718752  0.37500179     0.08900
H1367       H  0.60300912  0.62023370  0.31192111     0.06400
H1368       H  0.51703339  0.62020232  0.43804851     0.06300
C1369       C  0.80359480  0.93177048  0.34361792     0.03300
C1370       C  0.85810109  0.95397561  0.34004331    -0.12900
C1371       C  0.88587201  0.94300665  0.37495019     0.00800
C1372       C  0.85809991  0.90427067  0.40986325    -0.11400
C1373       C  0.80359396  0.87196477  0.40629929     0.03300
C1374       C  0.77530474  0.88772130  0.37496171    -0.10800
H1375       H  0.87978204  0.98294802  0.31188773     0.08900
H1376       H  0.87978032  0.89698825  0.43802155     0.06400
H1377       H  0.73281574  0.86647507  0.37496666     0.06300
C1378       C  0.93168978  0.80370654  0.40633112     0.03300
C1379       C  0.95388920  0.85821318  0.40990304    -0.12900
C1380       C  0.94291170  0.88597891  0.37499670     0.00800
C1381       C  0.90417949  0.85820245  0.34008418    -0.11400
C1382       C  0.87187880  0.80369591  0.34365122     0.03300
C1383       C  0.88763990  0.77541078  0.37498978    -0.10800
H1384       H  0.98286267  0.87989865  0.43805630     0.08900
H1385       H  0.89689456  0.87988056  0.31192528     0.06400
H1386       H  0.86639666  0.73292131  0.37498764     0.06300
O1387       O  0.76668373  0.56695288  0.29904597    -0.71600
O1388       O  0.80975147  0.50370159  0.20136079    -0.71800
O1389       O  0.76667675  0.56695385  0.20088833    -0.71700
O1390       O  0.80975972  0.50370024  0.29856051    -0.71700
O1391       O  0.73318942  0.93311391  0.29904639    -0.71700
O1392       O  0.69010646  0.99636682  0.20136798    -0.71700
O1393       O  0.73318345  0.93311223  0.20088702    -0.71600
O1394       O  0.69011151  0.99636868  0.29856817    -0.71800
V1395       V  0.78684587  0.53379413  0.24996406     1.35200
V1396       V  0.71301881  0.96627231  0.24996747     1.35200
C1397       C  0.71954047  0.54309623  0.31332330     0.77600
C1398       C  0.78032606  0.95697380  0.18660639     0.77700
C1399       C  0.71953314  0.54309510  0.18661229     0.77600
C1400       C  0.78033490  0.95697364  0.31331952     0.77500
O1401       O  0.69381709  0.50377266  0.04855173    -0.71600
O1402       O  0.80017212  0.56700414  0.45087366    -0.71800
O1403       O  0.69382246  0.50377055  0.45134901    -0.71700
O1404       O  0.80016994  0.56700583  0.04903378    -0.71700
O1405       O  0.80611387  0.99640857  0.04855815    -0.71700
O1406       O  0.69977059  0.93317530  0.45087824    -0.71700
O1407       O  0.80611404  0.99640590  0.45135556    -0.71600
O1408       O  0.69976830  0.93317932  0.04903526    -0.71800
V1409       V  0.74683437  0.53385675  0.99995222     1.35200
V1410       V  0.75310333  0.96632552  0.49995681     1.35200
C1411       C  0.67649803  0.95704500  0.06331145     0.77600
C1412       C  0.82343559  0.54313267  0.43659385     0.77700
C1413       C  0.67650311  0.95704133  0.43659499     0.77600
C1414       C  0.82343452  0.54313551  0.06331691     0.77500
O1415       O  0.69979283  0.76681278  0.29907502    -0.71600
O1416       O  0.80612064  0.80986641  0.20138953    -0.71800
O1417       O  0.69978471  0.76680626  0.20091613    -0.71700
O1418       O  0.80612659  0.80986801  0.29859055    -0.71700
O1419       O  0.80011638  0.73329595  0.29907124    -0.71700
O1420       O  0.69377385  0.69023399  0.20139816    -0.71700
O1421       O  0.80011113  0.73329478  0.20091156    -0.71600
O1422       O  0.69378259  0.69024061  0.29859919    -0.71800
V1423       V  0.75311809  0.78696740  0.24999282     1.35200
V1424       V  0.74678426  0.71313726  0.24999492     1.35200
C1425       C  0.67649563  0.71967068  0.31335649     0.77600
C1426       C  0.82340810  0.78043776  0.18663017     0.77700
C1427       C  0.67648510  0.71966233  0.18663943     0.77600
C1428       C  0.82341475  0.78043893  0.31334899     0.77500
O1429       O  0.93306709  0.69988160  0.79903510    -0.71600
O1430       O  0.99629732  0.80622769  0.70135385    -0.71800
O1431       O  0.93306374  0.69988314  0.70087815    -0.71700
O1432       O  0.99629885  0.80622773  0.79855610    -0.71700
O1433       O  0.56689415  0.80028227  0.79903322    -0.71700
O1434       O  0.50365495  0.69392973  0.70135445    -0.71700
O1435       O  0.56689170  0.80028048  0.70087358    -0.71600
O1436       O  0.50365955  0.69393050  0.79855717    -0.71800
V1437       V  0.96621486  0.75321672  0.74995581     1.35200
V1438       V  0.53374340  0.74694469  0.74995460     1.35200
C1439       C  0.95693260  0.67661194  0.81331499     0.77600
C1440       C  0.54302282  0.82354656  0.68659278     0.77700
C1441       C  0.95692710  0.67661222  0.68659882     0.77600
C1442       C  0.54302506  0.82354767  0.81331505     0.77500
O1443       O  0.80975962  0.80621312  0.54856977    -0.71600
O1444       O  0.76670449  0.69987631  0.95089040    -0.71800
O1445       O  0.80976619  0.80621471  0.95136850    -0.71700
O1446       O  0.76669715  0.69987530  0.54905054    -0.71700
O1447       O  0.69012938  0.69387197  0.54856618    -0.71700
O1448       O  0.73319519  0.80020414  0.95088190    -0.71700
O1449       O  0.69013516  0.69386941  0.95136571    -0.71600
O1450       O  0.73319045  0.80020694  0.54904085    -0.71800
V1451       V  0.78686120  0.75320648  0.49996968     1.35200
V1452       V  0.71303370  0.74687616  0.99996370     1.35200
C1453       C  0.78033128  0.82350287  0.56332408     0.77600
C1454       C  0.71956292  0.67658030  0.93660875     0.77700
C1455       C  0.78033822  0.82350221  0.93660570     0.77600
C1456       C  0.71955450  0.67658142  0.56332878     0.77500
O1457       O  0.50361344  0.80987383  0.54859217    -0.71600
O1458       O  0.56687143  0.76679819  0.95091715    -0.71800
O1459       O  0.50362001  0.80987700  0.95139157    -0.71700
O1460       O  0.56686791  0.76680022  0.54907647    -0.71700
O1461       O  0.99628269  0.69022844  0.54859597    -0.71700
O1462       O  0.93303420  0.73330583  0.95091071    -0.71700
O1463       O  0.99628582  0.69022709  0.95139506    -0.71600
O1464       O  0.93302858  0.73330210  0.54906950    -0.71800
V1465       V  0.53371083  0.78696571  0.99999429     1.35200
V1466       V  0.96619036  0.71313740  0.99999279     1.35200
C1467       C  0.95688598  0.78044586  0.56334669     0.77600
C1468       C  0.54301245  0.71965403  0.93663891     0.77700
C1469       C  0.95689409  0.78045054  0.93663304     0.77600
C1470       C  0.54300873  0.71965633  0.56335433     0.77500
C1471       C  0.87189347  0.56832736  0.59362908     0.03300
C1472       C  0.90417553  0.54610919  0.59007525    -0.12900
C1473       C  0.94291419  0.55708186  0.62498611     0.00800
C1474       C  0.95389991  0.59583326  0.65988605    -0.11400
C1475       C  0.93171722  0.62814437  0.65630215     0.03300
C1476       C  0.88767141  0.61238583  0.62495880    -0.10800
H1477       H  0.89687689  0.51713323  0.56192477     0.08900
H1478       H  0.98286897  0.60312661  0.68804368     0.06400
H1479       H  0.86644335  0.63364035  0.62494747     0.06300
C1480       C  0.56821676  0.87200785  0.65628472     0.03300
C1481       C  0.61227111  0.88778593  0.62494994    -0.12900
C1482       C  0.62803243  0.93183816  0.59361323     0.00800
C1483       C  0.59572553  0.95402767  0.59004122    -0.11400
C1484       C  0.55697222  0.94303289  0.62494318     0.03300
C1485       C  0.54600340  0.90429246  0.65984951    -0.10800
H1486       H  0.63352116  0.86655273  0.62495273     0.08900
H1487       H  0.60302072  0.98300427  0.56189155     0.06400
H1488       H  0.51703067  0.89699244  0.68800369     0.06300
C1489       C  0.97216207  0.52782864  0.62498633     0.02500
C1490       C  0.52772415  0.55561479  0.62498350     0.02500
C1491       C  0.55550044  0.52783805  0.62498334     0.02500
C1492       C  0.52771585  0.97227697  0.62495565     0.02500
C1493       C  0.97215337  0.94448850  0.62495668     0.02500
C1494       C  0.94437511  0.97226535  0.62497997     0.02500
C1495       C  0.80358441  0.93177076  0.65630780     0.03300
C1496       C  0.85809002  0.95397447  0.65988567    -0.12900
C1497       C  0.88586229  0.94300562  0.62498219     0.00800
C1498       C  0.85809193  0.90426989  0.59006925    -0.11400
C1499       C  0.80358533  0.87196542  0.59362937     0.03300
C1500       C  0.77529483  0.88772229  0.62496366    -0.10800
H1501       H  0.87976981  0.98294507  0.68804212     0.08900
H1502       H  0.87977398  0.89698715  0.56191445     0.06400
H1503       H  0.73280639  0.86647693  0.62495644     0.06300
C1504       C  0.56821488  0.69640176  0.59365380     0.03300
C1505       C  0.61226153  0.72469411  0.62499936    -0.12900
C1506       C  0.62802174  0.69640571  0.65633455     0.00800
C1507       C  0.59572011  0.64189735  0.65989476    -0.11400
C1508       C  0.55698473  0.61412666  0.62498141     0.03300
C1509       C  0.54601710  0.64189722  0.59007474    -0.10800
H1510       H  0.63350340  0.76718430  0.62500702     0.08900
H1511       H  0.60300451  0.62021492  0.68804907     0.06400
H1512       H  0.51704755  0.62021561  0.56191702     0.06300
C1513       C  0.69628016  0.56830605  0.65631702     0.03300
C1514       C  0.72457648  0.61235351  0.62497193    -0.12900
C1515       C  0.69629338  0.62812128  0.59363877     0.00800
C1516       C  0.64178536  0.59582929  0.59008271    -0.11400
C1517       C  0.61401126  0.55709510  0.62499514     0.03300
C1518       C  0.64177675  0.54611457  0.65989776    -0.10800
H1519       H  0.76706558  0.63358876  0.62496122     0.08900
H1520       H  0.62010531  0.60311765  0.56192878     0.06400
H1521       H  0.62009214  0.51714015  0.68805116     0.06300
C1522       C  0.93167560  0.80370002  0.59364020     0.03300
C1523       C  0.88763107  0.77540711  0.62498854    -0.12900
C1524       C  0.87186817  0.80369523  0.65631970     0.00800
C1525       C  0.90416516  0.85820443  0.65987223    -0.11400
C1526       C  0.94289623  0.88597556  0.62495538     0.03300
C1527       C  0.95386737  0.85820400  0.59005338    -0.10800
H1528       H  0.86639400  0.73291765  0.62500230     0.08900
H1529       H  0.89688098  0.87988729  0.68802548     0.06400
H1530       H  0.98283436  0.87988408  0.56189399     0.06300
C1531       C  0.87189603  0.56832511  0.90628536     0.03300
C1532       C  0.90417923  0.54610935  0.90984859    -0.12900
C1533       C  0.94292353  0.55708450  0.87494530     0.00800
C1534       C  0.95391717  0.59584017  0.84004537    -0.11400
C1535       C  0.93172676  0.62814589  0.84361703     0.03300
C1536       C  0.88767514  0.61238277  0.87495264    -0.10800
H1537       H  0.89687722  0.51713257  0.93800083     0.08900
H1538       H  0.98289349  0.60313729  0.81189525     0.06400
H1539       H  0.86644271  0.63363358  0.87495578     0.06300
C1540       C  0.56821843  0.87200747  0.84362492     0.03300
C1541       C  0.61227596  0.88778459  0.87495600    -0.12900
C1542       C  0.62803718  0.93183321  0.90629594     0.00800
C1543       C  0.59573003  0.95402025  0.90987475    -0.11400
C1544       C  0.55697839  0.94303269  0.87497444     0.03300
C1545       C  0.54600310  0.90429174  0.84006673    -0.10800
H1546       H  0.63352733  0.86655323  0.87494884     0.08900
H1547       H  0.60302475  0.98299188  0.93802904     0.06400
H1548       H  0.51702498  0.89699146  0.81191734     0.06300
C1549       C  0.97217071  0.52783072  0.87495471     0.02500
C1550       C  0.52773196  0.55561759  0.87497060     0.02500
C1551       C  0.55550981  0.52784113  0.87495645     0.02500
C1552       C  0.52772526  0.97227971  0.87497334     0.02500
C1553       C  0.97216435  0.94449149  0.87498313     0.02500
C1554       C  0.94438467  0.97226732  0.87495737     0.02500
C1555       C  0.69628969  0.56830885  0.84361920     0.03300
C1556       C  0.72458727  0.61235364  0.87496642    -0.12900
C1557       C  0.69630430  0.62811871  0.90630187     0.00800
C1558       C  0.64179677  0.59582469  0.90985995    -0.11400
C1559       C  0.61402114  0.55709743  0.87494325     0.03300
C1560       C  0.64178639  0.54612114  0.84003727    -0.10800
H1561       H  0.76707594  0.63358897  0.87497599     0.08900
H1562       H  0.62011796  0.60310918  0.93801758     0.06400
H1563       H  0.62010162  0.51715128  0.81188110     0.06300
C1564       C  0.56821717  0.69639960  0.90633575     0.03300
C1565       C  0.61227118  0.72469740  0.87499903    -0.12900
C1566       C  0.62803083  0.69641419  0.84365743     0.00800
C1567       C  0.59572536  0.64190918  0.84008268    -0.11400
C1568       C  0.55698848  0.61412973  0.87499002     0.03300
C1569       C  0.54601170  0.64189154  0.90989970    -0.10800
H1570       H  0.63351797  0.76718686  0.87500184     0.08900
H1571       H  0.60300910  0.62023383  0.81192122     0.06400
H1572       H  0.51703350  0.62020242  0.93804785     0.06300
C1573       C  0.80359475  0.93177058  0.84361793     0.03300
C1574       C  0.85810104  0.95397560  0.84004333    -0.12900
C1575       C  0.88587195  0.94300661  0.87494992     0.00800
C1576       C  0.85809982  0.90427069  0.90986311    -0.11400
C1577       C  0.80359380  0.87196476  0.90629916     0.03300
C1578       C  0.77530467  0.88772122  0.87496166    -0.10800
H1579       H  0.87978236  0.98294869  0.81188785     0.08900
H1580       H  0.87978015  0.89698818  0.93802089     0.06400
H1581       H  0.73281541  0.86647488  0.87496710     0.06300
C1582       C  0.93168970  0.80370656  0.90633109     0.03300
C1583       C  0.95388901  0.85821319  0.90990306    -0.12900
C1584       C  0.94291165  0.88597897  0.87499669     0.00800
C1585       C  0.90417944  0.85820239  0.84008428    -0.11400
C1586       C  0.87187884  0.80369589  0.84365126     0.03300
C1587       C  0.88763990  0.77541076  0.87498981    -0.10800
H1588       H  0.98286241  0.87989859  0.93805634     0.08900
H1589       H  0.89689457  0.87988037  0.81192504     0.06400
H1590       H  0.86639682  0.73292127  0.87498761     0.06300
O1591       O  0.76668367  0.56695288  0.79904595    -0.71600
O1592       O  0.80975150  0.50370176  0.70136078    -0.71800
O1593       O  0.76667675  0.56695373  0.70088828    -0.71700
O1594       O  0.80975981  0.50370028  0.79856047    -0.71700
O1595       O  0.73318940  0.93311415  0.79904650    -0.71700
O1596       O  0.69010646  0.99636688  0.70136801    -0.71700
O1597       O  0.73318340  0.93311221  0.70088713    -0.71600
O1598       O  0.69011144  0.99636869  0.79856823    -0.71800
V1599       V  0.78684588  0.53379416  0.74996406     1.35200
V1600       V  0.71301877  0.96627237  0.74996751     1.35200
C1601       C  0.71954041  0.54309625  0.81332336     0.77600
C1602       C  0.78032601  0.95697375  0.68660654     0.77700
C1603       C  0.71953309  0.54309504  0.68661234     0.77600
C1604       C  0.78033495  0.95697374  0.81331943     0.77500
O1605       O  0.69381698  0.50377259  0.54855173    -0.71600
O1606       O  0.80017205  0.56700420  0.95087355    -0.71800
O1607       O  0.69382240  0.50377041  0.95134895    -0.71700
O1608       O  0.80016987  0.56700571  0.54903400    -0.71700
O1609       O  0.80611390  0.99640857  0.54855800    -0.71700
O1610       O  0.69977056  0.93317522  0.95087827    -0.71700
O1611       O  0.80611417  0.99640593  0.95135569    -0.71600
O1612       O  0.69976833  0.93317938  0.54903508    -0.71800
V1613       V  0.74683439  0.53385670  0.49995230     1.35200
V1614       V  0.75310332  0.96632549  0.99995689     1.35200
C1615       C  0.67649801  0.95704499  0.56331141     0.77600
C1616       C  0.82343561  0.54313274  0.93659386     0.77700
C1617       C  0.67650301  0.95704129  0.93659518     0.77600
C1618       C  0.82343465  0.54313551  0.56331680     0.77500
O1619       O  0.69979310  0.76681302  0.79907514    -0.71600
O1620       O  0.80612079  0.80986662  0.70138955    -0.71800
O1621       O  0.69978475  0.76680653  0.70091635    -0.71700
O1622       O  0.80612670  0.80986814  0.79859065    -0.71700
O1623       O  0.80011638  0.73329603  0.79907118    -0.71700
O1624       O  0.69377395  0.69023418  0.70139799    -0.71700
O1625       O  0.80011115  0.73329497  0.70091159    -0.71600
O1626       O  0.69378265  0.69024075  0.79859908    -0.71800
V1627       V  0.75311822  0.78696755  0.74999289     1.35200
V1628       V  0.74678427  0.71313733  0.74999487     1.35200
C1629       C  0.67649570  0.71967080  0.81335640     0.77600
C1630       C  0.82340811  0.78043792  0.68663011     0.77700
C1631       C  0.67648524  0.71966260  0.68663939     0.77600
C1632       C  0.82341493  0.78043904  0.81334886     0.77500
loop_ 
_geom_bond_atom_site_label_1 
_geom_bond_atom_site_label_2 
_geom_bond_distance 
_geom_bond_site_symmetry_2 
_ccdc_geom_bond_type 
O1            V9   1.914       .  S
O1           C11   1.263       .  A
O2            V9   1.892       .  S
O2          C828   1.269       .  A
O3            V9   1.914       .  S
O3           C13   1.263       .  A
O4            V9   1.892       .  S
O4          C830   1.269       .  A
O5           V10   1.914       .  S
O5           C14   1.263       .  A
O6           V10   1.892       .  S
O6          C829   1.269   1_455  A
O7           V10   1.914       .  S
O7           C12   1.263       .  A
O8           V10   1.892       .  S
O8          C827   1.269   1_455  A
V9          V826   2.086       .  T
V10         V825   2.086   1_455  T
C11         O824   1.269       .  A
C11         C107   1.485       .  S
C12         O818   1.269   1_455  A
C12          C52   1.485       .  S
C13         O822   1.269       .  A
C13          C47   1.485       .  S
C14         O820   1.269   1_455  A
C14         C112   1.485       .  S
O15          V23   1.892   1_554  S
O15          C25   1.269       .  A
O16         V227   1.914       .  S
O16          C26   1.263       .  A
O17         V227   1.892       .  S
O17          C27   1.269       .  A
O18          V23   1.914   1_554  S
O18          C28   1.263       .  A
O19         V228   1.892   1_554  S
O19          C28   1.269       .  A
O20          V24   1.914       .  S
O20          C27   1.263       .  A
O21          V24   1.892       .  S
O21          C26   1.269       .  A
O22         V228   1.914   1_554  S
O22          C25   1.263       .  A
V23         O220   1.914       .  S
V23         O221   1.892       .  S
V23         V228   2.086       .  T
V24         O223   1.892       .  S
V24         O226   1.914       .  S
V24         V227   2.086       .  T
C25          C71   1.485       .  S
C26         C129   1.485       .  S
C27         C149   1.485       .  S
C28          C87   1.485       .  S
O29         V241   1.892   1_554  S
O29         C855   1.269   1_455  A
O30          V37   1.914       .  S
O30          C40   1.263       .  A
O31          V37   1.892       .  S
O31         C857   1.269   1_455  A
O32         V241   1.914   1_554  S
O32          C42   1.263       .  A
O33         V242   1.892   1_554  S
O33         C858   1.269       .  A
O34          V38   1.914       .  S
O34          C41   1.263       .  A
O35          V38   1.892       .  S
O35         C856   1.269       .  A
O36         V242   1.914   1_554  S
O36          C39   1.263       .  A
V37         O233   1.892       .  S
V37         O236   1.914       .  S
V37         V854   2.086   1_455  T
V38         O237   1.892       .  S
V38         O240   1.914       .  S
V38         V853   2.086       .  T
C39         O845   1.269       .  A
C39          C94   1.485       .  S
C40         O851   1.269   1_455  A
C40         C136   1.485       .  S
C41         O847   1.269       .  A
C41         C154   1.485       .  S
C42         O849   1.269   1_455  A
C42          C76   1.485       .  S
C43         C190   1.485       .  S
C43          C44   1.400       .  A
C43          C48   1.421       .  A
C44          C45   1.391       .  A
C44          H49   1.084       .  S
C45          C61   1.491       .  S
C45          C46   1.391       .  A
C46          C47   1.400       .  A
C46          H50   1.084       .  S
C47          C48   1.421       .  A
C48          H51   1.083       .  S
C52          C53   1.421       .  A
C52          C57   1.400       .  A
C53          C54   1.421       .  A
C53          H58   1.083       .  S
C54         C187   1.485       .  S
C54          C55   1.400       .  A
C55          C56   1.391       .  A
C55          H59   1.084       .  S
C56          C64   1.491       .  S
C56          C57   1.391       .  A
C57          H60   1.084       .  S
C61         C878   1.416       .  A
C61         C474   1.416   1_545  A
C62          C80   1.491       .  S
C62          C63   1.416       .  A
C62         C877   1.416   1_455  A
C63          C89   1.491       .  S
C63         C472   1.416   1_545  A
C64         C471   1.416       .  A
C64         C881   1.416   1_455  A
C65          C98   1.491       .  S
C65          C66   1.416       .  A
C65         C880   1.416       .  A
C66          C69   1.491       .  S
C66         C469   1.416       .  A
C67         C174   1.485       .  S
C67          C68   1.400       .  A
C67          C72   1.421       .  A
C68          C69   1.391       .  A
C68          H73   1.084       .  S
C69          C70   1.391       .  A
C70          C71   1.400       .  A
C70          H74   1.084       .  S
C71          C72   1.421       .  A
C72          H75   1.083       .  S
C76          C77   1.421       .  A
C76          C81   1.400       .  A
C77          C78   1.421       .  A
C77          H82   1.083       .  S
C78         C203   1.485       .  S
C78          C79   1.400       .  A
C79          C80   1.391       .  A
C79          H83   1.084       .  S
C80          C81   1.391       .  A
C81          H84   1.084       .  S
C85         C175   1.485       .  S
C85          C86   1.421       .  A
C85          C90   1.400       .  A
C86          C87   1.421       .  A
C86          H91   1.083       .  S
C87          C88   1.400       .  A
C88          C89   1.391       .  A
C88          H92   1.084       .  S
C89          C90   1.391       .  A
C90          H93   1.084       .  S
C94          C95   1.421       .  A
C94          C99   1.400       .  A
C95          C96   1.421       .  A
C95         H100   1.083       .  S
C96         C202   1.485       .  S
C96          C97   1.400       .  A
C97          C98   1.391       .  A
C97         H101   1.084       .  S
C98          C99   1.391       .  A
C99         H102   1.084       .  S
C103        C188   1.485       .  S
C103        C104   1.400       .  A
C103        C108   1.421       .  A
C104        C105   1.391       .  A
C104        H109   1.084       .  S
C105        C121   1.491       .  S
C105        C106   1.391       .  A
C106        C107   1.400       .  A
C106        H110   1.084       .  S
C107        C108   1.421       .  A
C108        H111   1.083       .  S
C112        C113   1.421       .  A
C112        C117   1.400       .  A
C113        C114   1.421       .  A
C113        H118   1.083       .  S
C114        C189   1.485       .  S
C114        C115   1.400       .  A
C115        C116   1.391       .  A
C115        H119   1.084       .  S
C116        C124   1.491       .  S
C116        C117   1.391       .  A
C117        H120   1.084       .  S
C121        C938   1.416       .  A
C121        C534   1.416   1_545  A
C122        C140   1.491       .  S
C122        C123   1.416       .  A
C122        C937   1.416   1_455  A
C123        C131   1.491       .  S
C123        C532   1.416   1_545  A
C124        C531   1.416       .  A
C124        C941   1.416   1_455  A
C125        C156   1.491       .  S
C125        C126   1.416       .  A
C125        C940   1.416       .  A
C126        C147   1.491       .  S
C126        C529   1.416       .  A
C127        C173   1.485       .  S
C127        C128   1.421       .  A
C127        C132   1.400       .  A
C128        C129   1.421       .  A
C128        H133   1.083       .  S
C129        C130   1.400       .  A
C130        C131   1.391       .  A
C130        H134   1.084       .  S
C131        C132   1.391       .  A
C132        H135   1.084       .  S
C136        C137   1.421       .  A
C136        C141   1.400       .  A
C137        C138   1.421       .  A
C137        H142   1.083       .  S
C138        C201   1.485       .  S
C138        C139   1.400       .  A
C139        C140   1.391       .  A
C139        H143   1.084       .  S
C140        C141   1.391       .  A
C141        H144   1.084       .  S
C145        C176   1.485       .  S
C145        C146   1.400       .  A
C145        C150   1.421       .  A
C146        C147   1.391       .  A
C146        H151   1.084       .  S
C147        C148   1.391       .  A
C148        C149   1.400       .  A
C148        H152   1.084       .  S
C149        C150   1.421       .  A
C150        H153   1.083       .  S
C154        C155   1.400       .  A
C154        C159   1.421       .  A
C155        C156   1.391       .  A
C155        H160   1.084       .  S
C156        C157   1.391       .  A
C157        C158   1.400       .  A
C157        H161   1.084       .  S
C158        C204   1.485       .  S
C158        C159   1.421       .  A
C159        H162   1.083       .  S
O163        V171   1.914       .  S
O163        C173   1.263       .  A
O164        V171   1.892       .  S
O164        C582   1.269   1_545  A
O165        V171   1.914       .  S
O165        C175   1.263       .  A
O166        V171   1.892       .  S
O166        C584   1.269   1_545  A
O167        V172   1.914       .  S
O167        C176   1.263       .  A
O168        V172   1.892       .  S
O168        C583   1.269       .  A
O169        V172   1.914       .  S
O169        C174   1.263       .  A
O170        V172   1.892       .  S
O170        C581   1.269       .  A
V171        V580   2.086   1_545  T
V172        V579   2.086       .  T
C173        O578   1.269   1_545  A
C174        O572   1.269       .  A
C175        O576   1.269   1_545  A
C176        O574   1.269       .  A
O177        V185   1.892   1_554  S
O177        C595   1.269   1_545  A
O178        V389   1.914       .  S
O178        C188   1.263       .  A
O179        V389   1.892       .  S
O179        C597   1.269   1_545  A
O180        V185   1.914   1_554  S
O180        C190   1.263       .  A
O181        V390   1.892   1_554  S
O181        C598   1.269       .  A
O182        V186   1.914       .  S
O182        C189   1.263       .  A
O183        V186   1.892       .  S
O183        C596   1.269       .  A
O184        V390   1.914   1_554  S
O184        C187   1.263       .  A
V185        O382   1.914       .  S
V185        O383   1.892       .  S
V185        V798   2.086   1_545  T
V186        O385   1.892       .  S
V186        O388   1.914       .  S
V186        V797   2.086       .  T
C187        O585   1.269       .  A
C188        O591   1.269   1_545  A
C189        O587   1.269       .  A
C190        O589   1.269   1_545  A
O191        V199   1.914       .  S
O191        C201   1.263       .  A
O192        V199   1.892       .  S
O192        C202   1.269       .  A
O193        V199   1.914       .  S
O193        C203   1.263       .  A
O194        V199   1.892       .  S
O194        C204   1.269       .  A
O195        V200   1.914       .  S
O195        C204   1.263       .  A
O196        V200   1.892       .  S
O196        C203   1.269       .  A
O197        V200   1.914       .  S
O197        C202   1.263       .  A
O198        V200   1.892       .  S
O198        C201   1.269       .  A
V199        V200   2.086       .  T
O205        V213   1.914       .  S
O205        C215   1.263       .  A
O206        V213   1.892       .  S
O206       C1032   1.269       .  A
O207        V213   1.914       .  S
O207        C217   1.263       .  A
O208        V213   1.892       .  S
O208       C1034   1.269       .  A
O209        V214   1.914       .  S
O209        C218   1.263       .  A
O210        V214   1.892       .  S
O210       C1033   1.269   1_455  A
O211        V214   1.914       .  S
O211        C216   1.263       .  A
O212        V214   1.892       .  S
O212       C1031   1.269   1_455  A
V213       V1030   2.086       .  T
V214       V1029   2.086   1_455  T
C215       O1028   1.269       .  A
C215        C311   1.485       .  S
C216       O1022   1.269   1_455  A
C216        C256   1.485       .  S
C217       O1026   1.269       .  A
C217        C251   1.485       .  S
C218       O1024   1.269   1_455  A
C218        C316   1.485       .  S
O219        V227   1.892       .  S
O219        C229   1.269       .  A
O220        C230   1.263       .  A
O221        C231   1.269       .  A
O222        V227   1.914       .  S
O222        C232   1.263       .  A
O223        C232   1.269       .  A
O224        V228   1.914       .  S
O224        C231   1.263       .  A
O225        V228   1.892       .  S
O225        C230   1.269       .  A
O226        C229   1.263       .  A
C229        C275   1.485       .  S
C230        C333   1.485       .  S
C231        C353   1.485       .  S
C232        C291   1.485       .  S
O233       C1059   1.269   1_455  A
O234        V241   1.914       .  S
O234        C244   1.263       .  A
O235        V241   1.892       .  S
O235       C1061   1.269   1_455  A
O236        C246   1.263       .  A
O237       C1062   1.269       .  A
O238        V242   1.914       .  S
O238        C245   1.263       .  A
O239        V242   1.892       .  S
O239       C1060   1.269       .  A
O240        C243   1.263       .  A
V241       V1058   2.086   1_455  T
V242       V1057   2.086       .  T
C243       O1049   1.269       .  A
C243        C298   1.485       .  S
C244       O1055   1.269   1_455  A
C244        C340   1.485       .  S
C245       O1051   1.269       .  A
C245        C358   1.485       .  S
C246       O1053   1.269   1_455  A
C246        C280   1.485       .  S
C247        C394   1.485       .  S
C247        C248   1.400       .  A
C247        C252   1.421       .  A
C248        C249   1.391       .  A
C248        H253   1.084       .  S
C249        C265   1.491       .  S
C249        C250   1.391       .  A
C250        C251   1.400       .  A
C250        H254   1.084       .  S
C251        C252   1.421       .  A
C252        H255   1.083       .  S
C256        C257   1.421       .  A
C256        C261   1.400       .  A
C257        C258   1.421       .  A
C257        H262   1.083       .  S
C258        C391   1.485       .  S
C258        C259   1.400       .  A
C259        C260   1.391       .  A
C259        H263   1.084       .  S
C260        C268   1.491       .  S
C260        C261   1.391       .  A
C261        H264   1.084       .  S
C265       C1082   1.416       .  A
C265        C678   1.416   1_545  A
C266        C284   1.491       .  S
C266       C1081   1.416   1_455  A
C266        C267   1.416       .  A
C267        C293   1.491       .  S
C267        C676   1.416   1_545  A
C268        C675   1.416       .  A
C268       C1085   1.416   1_455  A
C269        C302   1.491       .  S
C269       C1084   1.416       .  A
C269        C270   1.416       .  A
C270        C273   1.491       .  S
C270        C673   1.416       .  A
C271        C378   1.485       .  S
C271        C272   1.400       .  A
C271        C276   1.421       .  A
C272        C273   1.391       .  A
C272        H277   1.084       .  S
C273        C274   1.391       .  A
C274        C275   1.400       .  A
C274        H278   1.084       .  S
C275        C276   1.421       .  A
C276        H279   1.083       .  S
C280        C281   1.421       .  A
C280        C285   1.400       .  A
C281        C282   1.421       .  A
C281        H286   1.083       .  S
C282        C407   1.485       .  S
C282        C283   1.400       .  A
C283        C284   1.391       .  A
C283        H287   1.084       .  S
C284        C285   1.391       .  A
C285        H288   1.084       .  S
C289        C379   1.485       .  S
C289        C290   1.421       .  A
C289        C294   1.400       .  A
C290        C291   1.421       .  A
C290        H295   1.083       .  S
C291        C292   1.400       .  A
C292        C293   1.391       .  A
C292        H296   1.084       .  S
C293        C294   1.391       .  A
C294        H297   1.084       .  S
C298        C299   1.421       .  A
C298        C303   1.400       .  A
C299        C300   1.421       .  A
C299        H304   1.083       .  S
C300        C406   1.485       .  S
C300        C301   1.400       .  A
C301        C302   1.391       .  A
C301        H305   1.084       .  S
C302        C303   1.391       .  A
C303        H306   1.084       .  S
C307        C392   1.485       .  S
C307        C308   1.400       .  A
C307        C312   1.421       .  A
C308        C309   1.391       .  A
C308        H313   1.084       .  S
C309        C325   1.491       .  S
C309        C310   1.391       .  A
C310        C311   1.400       .  A
C310        H314   1.084       .  S
C311        C312   1.421       .  A
C312        H315   1.083       .  S
C316        C317   1.421       .  A
C316        C321   1.400       .  A
C317        C318   1.421       .  A
C317        H322   1.083       .  S
C318        C393   1.485       .  S
C318        C319   1.400       .  A
C319        C320   1.391       .  A
C319        H323   1.084       .  S
C320        C328   1.491       .  S
C320        C321   1.391       .  A
C321        H324   1.084       .  S
C325       C1142   1.416       .  A
C325        C738   1.416   1_545  A
C326        C344   1.491       .  S
C326       C1141   1.416   1_455  A
C326        C327   1.416       .  A
C327        C335   1.491       .  S
C327        C736   1.416   1_545  A
C328        C735   1.416       .  A
C328       C1145   1.416   1_455  A
C329        C360   1.491       .  S
C329       C1144   1.416       .  A
C329        C330   1.416       .  A
C330        C351   1.491       .  S
C330        C733   1.416       .  A
C331        C377   1.485       .  S
C331        C332   1.421       .  A
C331        C336   1.400       .  A
C332        C333   1.421       .  A
C332        H337   1.083       .  S
C333        C334   1.400       .  A
C334        C335   1.391       .  A
C334        H338   1.084       .  S
C335        C336   1.391       .  A
C336        H339   1.084       .  S
C340        C341   1.421       .  A
C340        C345   1.400       .  A
C341        C342   1.421       .  A
C341        H346   1.083       .  S
C342        C405   1.485       .  S
C342        C343   1.400       .  A
C343        C344   1.391       .  A
C343        H347   1.084       .  S
C344        C345   1.391       .  A
C345        H348   1.084       .  S
C349        C380   1.485       .  S
C349        C350   1.400       .  A
C349        C354   1.421       .  A
C350        C351   1.391       .  A
C350        H355   1.084       .  S
C351        C352   1.391       .  A
C352        C353   1.400       .  A
C352        H356   1.084       .  S
C353        C354   1.421       .  A
C354        H357   1.083       .  S
C358        C359   1.400       .  A
C358        C363   1.421       .  A
C359        C360   1.391       .  A
C359        H364   1.084       .  S
C360        C361   1.391       .  A
C361        C362   1.400       .  A
C361        H365   1.084       .  S
C362        C408   1.485       .  S
C362        C363   1.421       .  A
C363        H366   1.083       .  S
O367        V375   1.914       .  S
O367        C377   1.263       .  A
O368        V375   1.892       .  S
O368        C786   1.269   1_545  A
O369        V375   1.914       .  S
O369        C379   1.263       .  A
O370        V375   1.892       .  S
O370        C788   1.269   1_545  A
O371        V376   1.914       .  S
O371        C380   1.263       .  A
O372        V376   1.892       .  S
O372        C787   1.269       .  A
O373        V376   1.914       .  S
O373        C378   1.263       .  A
O374        V376   1.892       .  S
O374        C785   1.269       .  A
V375        V784   2.086   1_545  T
V376        V783   2.086       .  T
C377        O782   1.269   1_545  A
C378        O776   1.269       .  A
C379        O780   1.269   1_545  A
C380        O778   1.269       .  A
O381        V389   1.892       .  S
O381        C799   1.269   1_545  A
O382        C392   1.263       .  A
O383        C801   1.269   1_545  A
O384        V389   1.914       .  S
O384        C394   1.263       .  A
O385        C802   1.269       .  A
O386        V390   1.914       .  S
O386        C393   1.263       .  A
O387        V390   1.892       .  S
O387        C800   1.269       .  A
O388        C391   1.263       .  A
V389        V594   2.086   1_545  T
V390        V593   2.086       .  T
C391        O789   1.269       .  A
C392        O795   1.269   1_545  A
C393        O791   1.269       .  A
C394        O793   1.269   1_545  A
O395        V403   1.914       .  S
O395        C405   1.263       .  A
O396        V403   1.892       .  S
O396        C406   1.269       .  A
O397        V403   1.914       .  S
O397        C407   1.263       .  A
O398        V403   1.892       .  S
O398        C408   1.269       .  A
O399        V404   1.914       .  S
O399        C408   1.263       .  A
O400        V404   1.892       .  S
O400        C407   1.269       .  A
O401        V404   1.914       .  S
O401        C406   1.263       .  A
O402        V404   1.892       .  S
O402        C405   1.269       .  A
V403        V404   2.086       .  T
O409        V417   1.914       .  S
O409        C419   1.263       .  A
O410        V417   1.892       .  S
O410       C1236   1.269       .  A
O411        V417   1.914       .  S
O411        C421   1.263       .  A
O412        V417   1.892       .  S
O412       C1238   1.269       .  A
O413        V418   1.914       .  S
O413        C422   1.263       .  A
O414        V418   1.892       .  S
O414       C1237   1.269   1_455  A
O415        V418   1.914       .  S
O415        C420   1.263       .  A
O416        V418   1.892       .  S
O416       C1235   1.269   1_455  A
V417       V1234   2.086       .  T
V418       V1233   2.086   1_455  T
C419       O1232   1.269       .  A
C419        C515   1.485       .  S
C420       O1226   1.269   1_455  A
C420        C460   1.485       .  S
C421       O1230   1.269       .  A
C421        C455   1.485       .  S
C422       O1228   1.269   1_455  A
C422        C520   1.485       .  S
O423        V431   1.892   1_554  S
O423        C433   1.269       .  A
O424        V635   1.914       .  S
O424        C434   1.263       .  A
O425        V635   1.892       .  S
O425        C435   1.269       .  A
O426        V431   1.914   1_554  S
O426        C436   1.263       .  A
O427        V636   1.892   1_554  S
O427        C436   1.269       .  A
O428        V432   1.914       .  S
O428        C435   1.263       .  A
O429        V432   1.892       .  S
O429        C434   1.269       .  A
O430        V636   1.914   1_554  S
O430        C433   1.263       .  A
V431        O628   1.914       .  S
V431        O629   1.892       .  S
V431        V636   2.086       .  T
V432        O631   1.892       .  S
V432        O634   1.914       .  S
V432        V635   2.086       .  T
C433        C479   1.485       .  S
C434        C537   1.485       .  S
C435        C557   1.485       .  S
C436        C495   1.485       .  S
O437        V649   1.892   1_554  S
O437       C1263   1.269   1_455  A
O438        V445   1.914       .  S
O438        C448   1.263       .  A
O439        V445   1.892       .  S
O439       C1265   1.269   1_455  A
O440        V649   1.914   1_554  S
O440        C450   1.263       .  A
O441        V650   1.892   1_554  S
O441       C1266   1.269       .  A
O442        V446   1.914       .  S
O442        C449   1.263       .  A
O443        V446   1.892       .  S
O443       C1264   1.269       .  A
O444        V650   1.914   1_554  S
O444        C447   1.263       .  A
V445        O641   1.892       .  S
V445        O644   1.914       .  S
V445       V1262   2.086   1_455  T
V446        O645   1.892       .  S
V446        O648   1.914       .  S
V446       V1261   2.086       .  T
C447       O1253   1.269       .  A
C447        C502   1.485       .  S
C448       O1259   1.269   1_455  A
C448        C544   1.485       .  S
C449       O1255   1.269       .  A
C449        C562   1.485       .  S
C450       O1257   1.269   1_455  A
C450        C484   1.485       .  S
C451        C598   1.485       .  S
C451        C452   1.400       .  A
C451        C456   1.421       .  A
C452        C453   1.391       .  A
C452        H457   1.084       .  S
C453        C469   1.491       .  S
C453        C454   1.391       .  A
C454        C455   1.400       .  A
C454        H458   1.084       .  S
C455        C456   1.421       .  A
C456        H459   1.083       .  S
C460        C461   1.421       .  A
C460        C465   1.400       .  A
C461        C462   1.421       .  A
C461        H466   1.083       .  S
C462        C595   1.485       .  S
C462        C463   1.400       .  A
C463        C464   1.391       .  A
C463        H467   1.084       .  S
C464        C472   1.491       .  S
C464        C465   1.391       .  A
C465        H468   1.084       .  S
C469       C1286   1.416       .  A
C470        C488   1.491       .  S
C470       C1285   1.416   1_455  A
C470        C471   1.416       .  A
C471        C497   1.491       .  S
C472       C1289   1.416   1_455  A
C473        C506   1.491       .  S
C473       C1288   1.416       .  A
C473        C474   1.416       .  A
C474        C477   1.491       .  S
C475        C582   1.485       .  S
C475        C476   1.400       .  A
C475        C480   1.421       .  A
C476        C477   1.391       .  A
C476        H481   1.084       .  S
C477        C478   1.391       .  A
C478        C479   1.400       .  A
C478        H482   1.084       .  S
C479        C480   1.421       .  A
C480        H483   1.083       .  S
C484        C485   1.421       .  A
C484        C489   1.400       .  A
C485        C486   1.421       .  A
C485        H490   1.083       .  S
C486        C611   1.485       .  S
C486        C487   1.400       .  A
C487        C488   1.391       .  A
C487        H491   1.084       .  S
C488        C489   1.391       .  A
C489        H492   1.084       .  S
C493        C583   1.485       .  S
C493        C494   1.421       .  A
C493        C498   1.400       .  A
C494        C495   1.421       .  A
C494        H499   1.083       .  S
C495        C496   1.400       .  A
C496        C497   1.391       .  A
C496        H500   1.084       .  S
C497        C498   1.391       .  A
C498        H501   1.084       .  S
C502        C503   1.421       .  A
C502        C507   1.400       .  A
C503        C504   1.421       .  A
C503        H508   1.083       .  S
C504        C610   1.485       .  S
C504        C505   1.400       .  A
C505        C506   1.391       .  A
C505        H509   1.084       .  S
C506        C507   1.391       .  A
C507        H510   1.084       .  S
C511        C596   1.485       .  S
C511        C512   1.400       .  A
C511        C516   1.421       .  A
C512        C513   1.391       .  A
C512        H517   1.084       .  S
C513        C529   1.491       .  S
C513        C514   1.391       .  A
C514        C515   1.400       .  A
C514        H518   1.084       .  S
C515        C516   1.421       .  A
C516        H519   1.083       .  S
C520        C521   1.421       .  A
C520        C525   1.400       .  A
C521        C522   1.421       .  A
C521        H526   1.083       .  S
C522        C597   1.485       .  S
C522        C523   1.400       .  A
C523        C524   1.391       .  A
C523        H527   1.084       .  S
C524        C532   1.491       .  S
C524        C525   1.391       .  A
C525        H528   1.084       .  S
C529       C1346   1.416       .  A
C530        C548   1.491       .  S
C530       C1345   1.416   1_455  A
C530        C531   1.416       .  A
C531        C539   1.491       .  S
C532       C1349   1.416   1_455  A
C533        C564   1.491       .  S
C533       C1348   1.416       .  A
C533        C534   1.416       .  A
C534        C555   1.491       .  S
C535        C581   1.485       .  S
C535        C536   1.421       .  A
C535        C540   1.400       .  A
C536        C537   1.421       .  A
C536        H541   1.083       .  S
C537        C538   1.400       .  A
C538        C539   1.391       .  A
C538        H542   1.084       .  S
C539        C540   1.391       .  A
C540        H543   1.084       .  S
C544        C545   1.421       .  A
C544        C549   1.400       .  A
C545        C546   1.421       .  A
C545        H550   1.083       .  S
C546        C609   1.485       .  S
C546        C547   1.400       .  A
C547        C548   1.391       .  A
C547        H551   1.084       .  S
C548        C549   1.391       .  A
C549        H552   1.084       .  S
C553        C584   1.485       .  S
C553        C554   1.400       .  A
C553        C558   1.421       .  A
C554        C555   1.391       .  A
C554        H559   1.084       .  S
C555        C556   1.391       .  A
C556        C557   1.400       .  A
C556        H560   1.084       .  S
C557        C558   1.421       .  A
C558        H561   1.083       .  S
C562        C563   1.400       .  A
C562        C567   1.421       .  A
C563        C564   1.391       .  A
C563        H568   1.084       .  S
C564        C565   1.391       .  A
C565        C566   1.400       .  A
C565        H569   1.084       .  S
C566        C612   1.485       .  S
C566        C567   1.421       .  A
C567        H570   1.083       .  S
O571        V579   1.914       .  S
O571        C581   1.263       .  A
O572        V579   1.892       .  S
O573        V579   1.914       .  S
O573        C583   1.263       .  A
O574        V579   1.892       .  S
O575        V580   1.914       .  S
O575        C584   1.263       .  A
O576        V580   1.892       .  S
O577        V580   1.914       .  S
O577        C582   1.263       .  A
O578        V580   1.892       .  S
O585        V593   1.892   1_554  S
O586        V797   1.914       .  S
O586        C596   1.263       .  A
O587        V797   1.892       .  S
O588        V593   1.914   1_554  S
O588        C598   1.263       .  A
O589        V798   1.892   1_554  S
O590        V594   1.914       .  S
O590        C597   1.263       .  A
O591        V594   1.892       .  S
O592        V798   1.914   1_554  S
O592        C595   1.263       .  A
V593        O790   1.914       .  S
V593        O791   1.892       .  S
V594        O793   1.892       .  S
V594        O796   1.914       .  S
O599        V607   1.914       .  S
O599        C609   1.263       .  A
O600        V607   1.892       .  S
O600        C610   1.269       .  A
O601        V607   1.914       .  S
O601        C611   1.263       .  A
O602        V607   1.892       .  S
O602        C612   1.269       .  A
O603        V608   1.914       .  S
O603        C612   1.263       .  A
O604        V608   1.892       .  S
O604        C611   1.269       .  A
O605        V608   1.914       .  S
O605        C610   1.263       .  A
O606        V608   1.892       .  S
O606        C609   1.269       .  A
V607        V608   2.086       .  T
O613        V621   1.914       .  S
O613        C623   1.263       .  A
O614        V621   1.892       .  S
O614       C1440   1.269       .  A
O615        V621   1.914       .  S
O615        C625   1.263       .  A
O616        V621   1.892       .  S
O616       C1442   1.269       .  A
O617        V622   1.914       .  S
O617        C626   1.263       .  A
O618        V622   1.892       .  S
O618       C1441   1.269   1_455  A
O619        V622   1.914       .  S
O619        C624   1.263       .  A
O620        V622   1.892       .  S
O620       C1439   1.269   1_455  A
V621       V1438   2.086       .  T
V622       V1437   2.086   1_455  T
C623       O1436   1.269       .  A
C623        C719   1.485       .  S
C624       O1430   1.269   1_455  A
C624        C664   1.485       .  S
C625       O1434   1.269       .  A
C625        C659   1.485       .  S
C626       O1432   1.269   1_455  A
C626        C724   1.485       .  S
O627        V635   1.892       .  S
O627        C637   1.269       .  A
O628        C638   1.263       .  A
O629        C639   1.269       .  A
O630        V635   1.914       .  S
O630        C640   1.263       .  A
O631        C640   1.269       .  A
O632        V636   1.914       .  S
O632        C639   1.263       .  A
O633        V636   1.892       .  S
O633        C638   1.269       .  A
O634        C637   1.263       .  A
C637        C683   1.485       .  S
C638        C741   1.485       .  S
C639        C761   1.485       .  S
C640        C699   1.485       .  S
O641       C1467   1.269   1_455  A
O642        V649   1.914       .  S
O642        C652   1.263       .  A
O643        V649   1.892       .  S
O643       C1469   1.269   1_455  A
O644        C654   1.263       .  A
O645       C1470   1.269       .  A
O646        V650   1.914       .  S
O646        C653   1.263       .  A
O647        V650   1.892       .  S
O647       C1468   1.269       .  A
O648        C651   1.263       .  A
V649       V1466   2.086   1_455  T
V650       V1465   2.086       .  T
C651       O1457   1.269       .  A
C651        C706   1.485       .  S
C652       O1463   1.269   1_455  A
C652        C748   1.485       .  S
C653       O1459   1.269       .  A
C653        C766   1.485       .  S
C654       O1461   1.269   1_455  A
C654        C688   1.485       .  S
C655        C802   1.485       .  S
C655        C656   1.400       .  A
C655        C660   1.421       .  A
C656        C657   1.391       .  A
C656        H661   1.084       .  S
C657        C673   1.491       .  S
C657        C658   1.391       .  A
C658        C659   1.400       .  A
C658        H662   1.084       .  S
C659        C660   1.421       .  A
C660        H663   1.083       .  S
C664        C665   1.421       .  A
C664        C669   1.400       .  A
C665        C666   1.421       .  A
C665        H670   1.083       .  S
C666        C799   1.485       .  S
C666        C667   1.400       .  A
C667        C668   1.391       .  A
C667        H671   1.084       .  S
C668        C676   1.491       .  S
C668        C669   1.391       .  A
C669        H672   1.084       .  S
C673       C1490   1.416       .  A
C674        C692   1.491       .  S
C674       C1489   1.416   1_455  A
C674        C675   1.416       .  A
C675        C701   1.491       .  S
C676       C1493   1.416   1_455  A
C677        C710   1.491       .  S
C677       C1492   1.416       .  A
C677        C678   1.416       .  A
C678        C681   1.491       .  S
C679        C786   1.485       .  S
C679        C680   1.400       .  A
C679        C684   1.421       .  A
C680        C681   1.391       .  A
C680        H685   1.084       .  S
C681        C682   1.391       .  A
C682        C683   1.400       .  A
C682        H686   1.084       .  S
C683        C684   1.421       .  A
C684        H687   1.083       .  S
C688        C689   1.421       .  A
C688        C693   1.400       .  A
C689        C690   1.421       .  A
C689        H694   1.083       .  S
C690        C815   1.485       .  S
C690        C691   1.400       .  A
C691        C692   1.391       .  A
C691        H695   1.084       .  S
C692        C693   1.391       .  A
C693        H696   1.084       .  S
C697        C787   1.485       .  S
C697        C698   1.421       .  A
C697        C702   1.400       .  A
C698        C699   1.421       .  A
C698        H703   1.083       .  S
C699        C700   1.400       .  A
C700        C701   1.391       .  A
C700        H704   1.084       .  S
C701        C702   1.391       .  A
C702        H705   1.084       .  S
C706        C707   1.421       .  A
C706        C711   1.400       .  A
C707        C708   1.421       .  A
C707        H712   1.083       .  S
C708        C814   1.485       .  S
C708        C709   1.400       .  A
C709        C710   1.391       .  A
C709        H713   1.084       .  S
C710        C711   1.391       .  A
C711        H714   1.084       .  S
C715        C800   1.485       .  S
C715        C716   1.400       .  A
C715        C720   1.421       .  A
C716        C717   1.391       .  A
C716        H721   1.084       .  S
C717        C733   1.491       .  S
C717        C718   1.391       .  A
C718        C719   1.400       .  A
C718        H722   1.084       .  S
C719        C720   1.421       .  A
C720        H723   1.083       .  S
C724        C725   1.421       .  A
C724        C729   1.400       .  A
C725        C726   1.421       .  A
C725        H730   1.083       .  S
C726        C801   1.485       .  S
C726        C727   1.400       .  A
C727        C728   1.391       .  A
C727        H731   1.084       .  S
C728        C736   1.491       .  S
C728        C729   1.391       .  A
C729        H732   1.084       .  S
C733       C1550   1.416       .  A
C734        C752   1.491       .  S
C734       C1549   1.416   1_455  A
C734        C735   1.416       .  A
C735        C743   1.491       .  S
C736       C1553   1.416   1_455  A
C737        C768   1.491       .  S
C737       C1552   1.416       .  A
C737        C738   1.416       .  A
C738        C759   1.491       .  S
C739        C785   1.485       .  S
C739        C740   1.421       .  A
C739        C744   1.400       .  A
C740        C741   1.421       .  A
C740        H745   1.083       .  S
C741        C742   1.400       .  A
C742        C743   1.391       .  A
C742        H746   1.084       .  S
C743        C744   1.391       .  A
C744        H747   1.084       .  S
C748        C749   1.421       .  A
C748        C753   1.400       .  A
C749        C750   1.421       .  A
C749        H754   1.083       .  S
C750        C813   1.485       .  S
C750        C751   1.400       .  A
C751        C752   1.391       .  A
C751        H755   1.084       .  S
C752        C753   1.391       .  A
C753        H756   1.084       .  S
C757        C788   1.485       .  S
C757        C758   1.400       .  A
C757        C762   1.421       .  A
C758        C759   1.391       .  A
C758        H763   1.084       .  S
C759        C760   1.391       .  A
C760        C761   1.400       .  A
C760        H764   1.084       .  S
C761        C762   1.421       .  A
C762        H765   1.083       .  S
C766        C767   1.400       .  A
C766        C771   1.421       .  A
C767        C768   1.391       .  A
C767        H772   1.084       .  S
C768        C769   1.391       .  A
C769        C770   1.400       .  A
C769        H773   1.084       .  S
C770        C816   1.485       .  S
C770        C771   1.421       .  A
C771        H774   1.083       .  S
O775        V783   1.914       .  S
O775        C785   1.263       .  A
O776        V783   1.892       .  S
O777        V783   1.914       .  S
O777        C787   1.263       .  A
O778        V783   1.892       .  S
O779        V784   1.914       .  S
O779        C788   1.263       .  A
O780        V784   1.892       .  S
O781        V784   1.914       .  S
O781        C786   1.263       .  A
O782        V784   1.892       .  S
O789        V797   1.892       .  S
O790        C800   1.263       .  A
O792        V797   1.914       .  S
O792        C802   1.263       .  A
O794        V798   1.914       .  S
O794        C801   1.263       .  A
O795        V798   1.892       .  S
O796        C799   1.263       .  A
O803        V811   1.914       .  S
O803        C813   1.263       .  A
O804        V811   1.892       .  S
O804        C814   1.269       .  A
O805        V811   1.914       .  S
O805        C815   1.263       .  A
O806        V811   1.892       .  S
O806        C816   1.269       .  A
O807        V812   1.914       .  S
O807        C816   1.263       .  A
O808        V812   1.892       .  S
O808        C815   1.269       .  A
O809        V812   1.914       .  S
O809        C814   1.263       .  A
O810        V812   1.892       .  S
O810        C813   1.269       .  A
V811        V812   2.086       .  T
O817        V825   1.914       .  S
O817        C827   1.263       .  A
O818        V825   1.892       .  S
O819        V825   1.914       .  S
O819        C829   1.263       .  A
O820        V825   1.892       .  S
O821        V826   1.914       .  S
O821        C830   1.263       .  A
O822        V826   1.892       .  S
O823        V826   1.914       .  S
O823        C828   1.263       .  A
O824        V826   1.892       .  S
C827        C923   1.485       .  S
C828        C868   1.485       .  S
C829        C863   1.485       .  S
C830        C928   1.485       .  S
O831        V839   1.892   1_554  S
O831        C841   1.269       .  A
O832       V1043   1.914       .  S
O832        C842   1.263       .  A
O833       V1043   1.892       .  S
O833        C843   1.269       .  A
O834        V839   1.914   1_554  S
O834        C844   1.263       .  A
O835       V1044   1.892   1_554  S
O835        C844   1.269       .  A
O836        V840   1.914       .  S
O836        C843   1.263       .  A
O837        V840   1.892       .  S
O837        C842   1.269       .  A
O838       V1044   1.914   1_554  S
O838        C841   1.263       .  A
V839       O1036   1.914       .  S
V839       O1037   1.892       .  S
V839       V1044   2.086       .  T
V840       O1039   1.892       .  S
V840       O1042   1.914       .  S
V840       V1043   2.086       .  T
C841        C887   1.485       .  S
C842        C945   1.485       .  S
C843        C965   1.485       .  S
C844        C903   1.485       .  S
O845       V1057   1.892   1_554  S
O846        V853   1.914       .  S
O846        C856   1.263       .  A
O847        V853   1.892       .  S
O848       V1057   1.914   1_554  S
O848        C858   1.263       .  A
O849       V1058   1.892   1_554  S
O850        V854   1.914       .  S
O850        C857   1.263       .  A
O851        V854   1.892       .  S
O852       V1058   1.914   1_554  S
O852        C855   1.263       .  A
V853       O1049   1.892       .  S
V853       O1052   1.914       .  S
V854       O1053   1.892       .  S
V854       O1056   1.914       .  S
C855        C910   1.485       .  S
C856        C952   1.485       .  S
C857        C970   1.485       .  S
C858        C892   1.485       .  S
C859       C1006   1.485       .  S
C859        C860   1.400       .  A
C859        C864   1.421       .  A
C860        C861   1.391       .  A
C860        H865   1.084       .  S
C861        C877   1.491       .  S
C861        C862   1.391       .  A
C862        C863   1.400       .  A
C862        H866   1.084       .  S
C863        C864   1.421       .  A
C864        H867   1.083       .  S
C868        C869   1.421       .  A
C868        C873   1.400       .  A
C869        C870   1.421       .  A
C869        H874   1.083       .  S
C870       C1003   1.485       .  S
C870        C871   1.400       .  A
C871        C872   1.391       .  A
C871        H875   1.084       .  S
C872        C880   1.491       .  S
C872        C873   1.391       .  A
C873        H876   1.084       .  S
C877       C1290   1.416   1_545  A
C878        C896   1.491       .  S
C878        C879   1.416       .  A
C879        C905   1.491       .  S
C879       C1288   1.416   1_545  A
C880       C1287   1.416       .  A
C881        C914   1.491       .  S
C881        C882   1.416       .  A
C882        C885   1.491       .  S
C882       C1285   1.416       .  A
C883        C990   1.485       .  S
C883        C884   1.400       .  A
C883        C888   1.421       .  A
C884        C885   1.391       .  A
C884        H889   1.084       .  S
C885        C886   1.391       .  A
C886        C887   1.400       .  A
C886        H890   1.084       .  S
C887        C888   1.421       .  A
C888        H891   1.083       .  S
C892        C893   1.421       .  A
C892        C897   1.400       .  A
C893        C894   1.421       .  A
C893        H898   1.083       .  S
C894       C1019   1.485       .  S
C894        C895   1.400       .  A
C895        C896   1.391       .  A
C895        H899   1.084       .  S
C896        C897   1.391       .  A
C897        H900   1.084       .  S
C901        C991   1.485       .  S
C901        C902   1.421       .  A
C901        C906   1.400       .  A
C902        C903   1.421       .  A
C902        H907   1.083       .  S
C903        C904   1.400       .  A
C904        C905   1.391       .  A
C904        H908   1.084       .  S
C905        C906   1.391       .  A
C906        H909   1.084       .  S
C910        C911   1.421       .  A
C910        C915   1.400       .  A
C911        C912   1.421       .  A
C911        H916   1.083       .  S
C912       C1018   1.485       .  S
C912        C913   1.400       .  A
C913        C914   1.391       .  A
C913        H917   1.084       .  S
C914        C915   1.391       .  A
C915        H918   1.084       .  S
C919       C1004   1.485       .  S
C919        C920   1.400       .  A
C919        C924   1.421       .  A
C920        C921   1.391       .  A
C920        H925   1.084       .  S
C921        C937   1.491       .  S
C921        C922   1.391       .  A
C922        C923   1.400       .  A
C922        H926   1.084       .  S
C923        C924   1.421       .  A
C924        H927   1.083       .  S
C928        C929   1.421       .  A
C928        C933   1.400       .  A
C929        C930   1.421       .  A
C929        H934   1.083       .  S
C930       C1005   1.485       .  S
C930        C931   1.400       .  A
C931        C932   1.391       .  A
C931        H935   1.084       .  S
C932        C940   1.491       .  S
C932        C933   1.391       .  A
C933        H936   1.084       .  S
C937       C1350   1.416   1_545  A
C938        C956   1.491       .  S
C938        C939   1.416       .  A
C939        C947   1.491       .  S
C939       C1348   1.416   1_545  A
C940       C1347   1.416       .  A
C941        C972   1.491       .  S
C941        C942   1.416       .  A
C942        C963   1.491       .  S
C942       C1345   1.416       .  A
C943        C989   1.485       .  S
C943        C944   1.421       .  A
C943        C948   1.400       .  A
C944        C945   1.421       .  A
C944        H949   1.083       .  S
C945        C946   1.400       .  A
C946        C947   1.391       .  A
C946        H950   1.084       .  S
C947        C948   1.391       .  A
C948        H951   1.084       .  S
C952        C953   1.421       .  A
C952        C957   1.400       .  A
C953        C954   1.421       .  A
C953        H958   1.083       .  S
C954       C1017   1.485       .  S
C954        C955   1.400       .  A
C955        C956   1.391       .  A
C955        H959   1.084       .  S
C956        C957   1.391       .  A
C957        H960   1.084       .  S
C961        C992   1.485       .  S
C961        C962   1.400       .  A
C961        C966   1.421       .  A
C962        C963   1.391       .  A
C962        H967   1.084       .  S
C963        C964   1.391       .  A
C964        C965   1.400       .  A
C964        H968   1.084       .  S
C965        C966   1.421       .  A
C966        H969   1.083       .  S
C970        C971   1.400       .  A
C970        C975   1.421       .  A
C971        C972   1.391       .  A
C971        H976   1.084       .  S
C972        C973   1.391       .  A
C973        C974   1.400       .  A
C973        H977   1.084       .  S
C974       C1020   1.485       .  S
C974        C975   1.421       .  A
C975        H978   1.083       .  S
O979        V987   1.914       .  S
O979        C989   1.263       .  A
O980        V987   1.892       .  S
O980       C1398   1.269   1_545  A
O981        V987   1.914       .  S
O981        C991   1.263       .  A
O982        V987   1.892       .  S
O982       C1400   1.269   1_545  A
O983        V988   1.914       .  S
O983        C992   1.263       .  A
O984        V988   1.892       .  S
O984       C1399   1.269       .  A
O985        V988   1.914       .  S
O985        C990   1.263       .  A
O986        V988   1.892       .  S
O986       C1397   1.269       .  A
V987       V1396   2.086   1_545  T
V988       V1395   2.086       .  T
C989       O1394   1.269   1_545  A
C990       O1388   1.269       .  A
C991       O1392   1.269   1_545  A
C992       O1390   1.269       .  A
O993       V1001   1.892   1_554  S
O993       C1411   1.269   1_545  A
O994       V1205   1.914       .  S
O994       C1004   1.263       .  A
O995       V1205   1.892       .  S
O995       C1413   1.269   1_545  A
O996       V1001   1.914   1_554  S
O996       C1006   1.263       .  A
O997       V1206   1.892   1_554  S
O997       C1414   1.269       .  A
O998       V1002   1.914       .  S
O998       C1005   1.263       .  A
O999       V1002   1.892       .  S
O999       C1412   1.269       .  A
O1000      V1206   1.914   1_554  S
O1000      C1003   1.263       .  A
V1001      O1198   1.914       .  S
V1001      O1199   1.892       .  S
V1001      V1614   2.086   1_545  T
V1002      O1201   1.892       .  S
V1002      O1204   1.914       .  S
V1002      V1613   2.086       .  T
C1003      O1401   1.269       .  A
C1004      O1407   1.269   1_545  A
C1005      O1403   1.269       .  A
C1006      O1405   1.269   1_545  A
O1007      V1015   1.914       .  S
O1007      C1017   1.263       .  A
O1008      V1015   1.892       .  S
O1008      C1018   1.269       .  A
O1009      V1015   1.914       .  S
O1009      C1019   1.263       .  A
O1010      V1015   1.892       .  S
O1010      C1020   1.269       .  A
O1011      V1016   1.914       .  S
O1011      C1020   1.263       .  A
O1012      V1016   1.892       .  S
O1012      C1019   1.269       .  A
O1013      V1016   1.914       .  S
O1013      C1018   1.263       .  A
O1014      V1016   1.892       .  S
O1014      C1017   1.269       .  A
V1015      V1016   2.086       .  T
O1021      V1029   1.914       .  S
O1021      C1031   1.263       .  A
O1022      V1029   1.892       .  S
O1023      V1029   1.914       .  S
O1023      C1033   1.263       .  A
O1024      V1029   1.892       .  S
O1025      V1030   1.914       .  S
O1025      C1034   1.263       .  A
O1026      V1030   1.892       .  S
O1027      V1030   1.914       .  S
O1027      C1032   1.263       .  A
O1028      V1030   1.892       .  S
C1031      C1127   1.485       .  S
C1032      C1072   1.485       .  S
C1033      C1067   1.485       .  S
C1034      C1132   1.485       .  S
O1035      V1043   1.892       .  S
O1035      C1045   1.269       .  A
O1036      C1046   1.263       .  A
O1037      C1047   1.269       .  A
O1038      V1043   1.914       .  S
O1038      C1048   1.263       .  A
O1039      C1048   1.269       .  A
O1040      V1044   1.914       .  S
O1040      C1047   1.263       .  A
O1041      V1044   1.892       .  S
O1041      C1046   1.269       .  A
O1042      C1045   1.263       .  A
C1045      C1091   1.485       .  S
C1046      C1149   1.485       .  S
C1047      C1169   1.485       .  S
C1048      C1107   1.485       .  S
O1050      V1057   1.914       .  S
O1050      C1060   1.263       .  A
O1051      V1057   1.892       .  S
O1052      C1062   1.263       .  A
O1054      V1058   1.914       .  S
O1054      C1061   1.263       .  A
O1055      V1058   1.892       .  S
O1056      C1059   1.263       .  A
C1059      C1114   1.485       .  S
C1060      C1156   1.485       .  S
C1061      C1174   1.485       .  S
C1062      C1096   1.485       .  S
C1063      C1210   1.485       .  S
C1063      C1064   1.400       .  A
C1063      C1068   1.421       .  A
C1064      C1065   1.391       .  A
C1064      H1069   1.084       .  S
C1065      C1081   1.491       .  S
C1065      C1066   1.391       .  A
C1066      C1067   1.400       .  A
C1066      H1070   1.084       .  S
C1067      C1068   1.421       .  A
C1068      H1071   1.083       .  S
C1072      C1073   1.421       .  A
C1072      C1077   1.400       .  A
C1073      C1074   1.421       .  A
C1073      H1078   1.083       .  S
C1074      C1207   1.485       .  S
C1074      C1075   1.400       .  A
C1075      C1076   1.391       .  A
C1075      H1079   1.084       .  S
C1076      C1084   1.491       .  S
C1076      C1077   1.391       .  A
C1077      H1080   1.084       .  S
C1081      C1494   1.416   1_545  A
C1082      C1100   1.491       .  S
C1082      C1083   1.416       .  A
C1083      C1109   1.491       .  S
C1083      C1492   1.416   1_545  A
C1084      C1491   1.416       .  A
C1085      C1118   1.491       .  S
C1085      C1086   1.416       .  A
C1086      C1089   1.491       .  S
C1086      C1489   1.416       .  A
C1087      C1194   1.485       .  S
C1087      C1088   1.400       .  A
C1087      C1092   1.421       .  A
C1088      C1089   1.391       .  A
C1088      H1093   1.084       .  S
C1089      C1090   1.391       .  A
C1090      C1091   1.400       .  A
C1090      H1094   1.084       .  S
C1091      C1092   1.421       .  A
C1092      H1095   1.083       .  S
C1096      C1097   1.421       .  A
C1096      C1101   1.400       .  A
C1097      C1098   1.421       .  A
C1097      H1102   1.083       .  S
C1098      C1223   1.485       .  S
C1098      C1099   1.400       .  A
C1099      C1100   1.391       .  A
C1099      H1103   1.084       .  S
C1100      C1101   1.391       .  A
C1101      H1104   1.084       .  S
C1105      C1195   1.485       .  S
C1105      C1106   1.421       .  A
C1105      C1110   1.400       .  A
C1106      C1107   1.421       .  A
C1106      H1111   1.083       .  S
C1107      C1108   1.400       .  A
C1108      C1109   1.391       .  A
C1108      H1112   1.084       .  S
C1109      C1110   1.391       .  A
C1110      H1113   1.084       .  S
C1114      C1115   1.421       .  A
C1114      C1119   1.400       .  A
C1115      C1116   1.421       .  A
C1115      H1120   1.083       .  S
C1116      C1222   1.485       .  S
C1116      C1117   1.400       .  A
C1117      C1118   1.391       .  A
C1117      H1121   1.084       .  S
C1118      C1119   1.391       .  A
C1119      H1122   1.084       .  S
C1123      C1208   1.485       .  S
C1123      C1124   1.400       .  A
C1123      C1128   1.421       .  A
C1124      C1125   1.391       .  A
C1124      H1129   1.084       .  S
C1125      C1141   1.491       .  S
C1125      C1126   1.391       .  A
C1126      C1127   1.400       .  A
C1126      H1130   1.084       .  S
C1127      C1128   1.421       .  A
C1128      H1131   1.083       .  S
C1132      C1133   1.421       .  A
C1132      C1137   1.400       .  A
C1133      C1134   1.421       .  A
C1133      H1138   1.083       .  S
C1134      C1209   1.485       .  S
C1134      C1135   1.400       .  A
C1135      C1136   1.391       .  A
C1135      H1139   1.084       .  S
C1136      C1144   1.491       .  S
C1136      C1137   1.391       .  A
C1137      H1140   1.084       .  S
C1141      C1554   1.416   1_545  A
C1142      C1160   1.491       .  S
C1142      C1143   1.416       .  A
C1143      C1151   1.491       .  S
C1143      C1552   1.416   1_545  A
C1144      C1551   1.416       .  A
C1145      C1176   1.491       .  S
C1145      C1146   1.416       .  A
C1146      C1167   1.491       .  S
C1146      C1549   1.416       .  A
C1147      C1193   1.485       .  S
C1147      C1148   1.421       .  A
C1147      C1152   1.400       .  A
C1148      C1149   1.421       .  A
C1148      H1153   1.083       .  S
C1149      C1150   1.400       .  A
C1150      C1151   1.391       .  A
C1150      H1154   1.084       .  S
C1151      C1152   1.391       .  A
C1152      H1155   1.084       .  S
C1156      C1157   1.421       .  A
C1156      C1161   1.400       .  A
C1157      C1158   1.421       .  A
C1157      H1162   1.083       .  S
C1158      C1221   1.485       .  S
C1158      C1159   1.400       .  A
C1159      C1160   1.391       .  A
C1159      H1163   1.084       .  S
C1160      C1161   1.391       .  A
C1161      H1164   1.084       .  S
C1165      C1196   1.485       .  S
C1165      C1166   1.400       .  A
C1165      C1170   1.421       .  A
C1166      C1167   1.391       .  A
C1166      H1171   1.084       .  S
C1167      C1168   1.391       .  A
C1168      C1169   1.400       .  A
C1168      H1172   1.084       .  S
C1169      C1170   1.421       .  A
C1170      H1173   1.083       .  S
C1174      C1175   1.400       .  A
C1174      C1179   1.421       .  A
C1175      C1176   1.391       .  A
C1175      H1180   1.084       .  S
C1176      C1177   1.391       .  A
C1177      C1178   1.400       .  A
C1177      H1181   1.084       .  S
C1178      C1224   1.485       .  S
C1178      C1179   1.421       .  A
C1179      H1182   1.083       .  S
O1183      V1191   1.914       .  S
O1183      C1193   1.263       .  A
O1184      V1191   1.892       .  S
O1184      C1602   1.269   1_545  A
O1185      V1191   1.914       .  S
O1185      C1195   1.263       .  A
O1186      V1191   1.892       .  S
O1186      C1604   1.269   1_545  A
O1187      V1192   1.914       .  S
O1187      C1196   1.263       .  A
O1188      V1192   1.892       .  S
O1188      C1603   1.269       .  A
O1189      V1192   1.914       .  S
O1189      C1194   1.263       .  A
O1190      V1192   1.892       .  S
O1190      C1601   1.269       .  A
V1191      V1600   2.086   1_545  T
V1192      V1599   2.086       .  T
C1193      O1598   1.269   1_545  A
C1194      O1592   1.269       .  A
C1195      O1596   1.269   1_545  A
C1196      O1594   1.269       .  A
O1197      V1205   1.892       .  S
O1197      C1615   1.269   1_545  A
O1198      C1208   1.263       .  A
O1199      C1617   1.269   1_545  A
O1200      V1205   1.914       .  S
O1200      C1210   1.263       .  A
O1201      C1618   1.269       .  A
O1202      V1206   1.914       .  S
O1202      C1209   1.263       .  A
O1203      V1206   1.892       .  S
O1203      C1616   1.269       .  A
O1204      C1207   1.263       .  A
V1205      V1410   2.086   1_545  T
V1206      V1409   2.086       .  T
C1207      O1605   1.269       .  A
C1208      O1611   1.269   1_545  A
C1209      O1607   1.269       .  A
C1210      O1609   1.269   1_545  A
O1211      V1219   1.914       .  S
O1211      C1221   1.263       .  A
O1212      V1219   1.892       .  S
O1212      C1222   1.269       .  A
O1213      V1219   1.914       .  S
O1213      C1223   1.263       .  A
O1214      V1219   1.892       .  S
O1214      C1224   1.269       .  A
O1215      V1220   1.914       .  S
O1215      C1224   1.263       .  A
O1216      V1220   1.892       .  S
O1216      C1223   1.269       .  A
O1217      V1220   1.914       .  S
O1217      C1222   1.263       .  A
O1218      V1220   1.892       .  S
O1218      C1221   1.269       .  A
V1219      V1220   2.086       .  T
O1225      V1233   1.914       .  S
O1225      C1235   1.263       .  A
O1226      V1233   1.892       .  S
O1227      V1233   1.914       .  S
O1227      C1237   1.263       .  A
O1228      V1233   1.892       .  S
O1229      V1234   1.914       .  S
O1229      C1238   1.263       .  A
O1230      V1234   1.892       .  S
O1231      V1234   1.914       .  S
O1231      C1236   1.263       .  A
O1232      V1234   1.892       .  S
C1235      C1331   1.485       .  S
C1236      C1276   1.485       .  S
C1237      C1271   1.485       .  S
C1238      C1336   1.485       .  S
O1239      V1247   1.892   1_554  S
O1239      C1249   1.269       .  A
O1240      V1451   1.914       .  S
O1240      C1250   1.263       .  A
O1241      V1451   1.892       .  S
O1241      C1251   1.269       .  A
O1242      V1247   1.914   1_554  S
O1242      C1252   1.263       .  A
O1243      V1452   1.892   1_554  S
O1243      C1252   1.269       .  A
O1244      V1248   1.914       .  S
O1244      C1251   1.263       .  A
O1245      V1248   1.892       .  S
O1245      C1250   1.269       .  A
O1246      V1452   1.914   1_554  S
O1246      C1249   1.263       .  A
V1247      O1444   1.914       .  S
V1247      O1445   1.892       .  S
V1247      V1452   2.086       .  T
V1248      O1447   1.892       .  S
V1248      O1450   1.914       .  S
V1248      V1451   2.086       .  T
C1249      C1295   1.485       .  S
C1250      C1353   1.485       .  S
C1251      C1373   1.485       .  S
C1252      C1311   1.485       .  S
O1253      V1465   1.892   1_554  S
O1254      V1261   1.914       .  S
O1254      C1264   1.263       .  A
O1255      V1261   1.892       .  S
O1256      V1465   1.914   1_554  S
O1256      C1266   1.263       .  A
O1257      V1466   1.892   1_554  S
O1258      V1262   1.914       .  S
O1258      C1265   1.263       .  A
O1259      V1262   1.892       .  S
O1260      V1466   1.914   1_554  S
O1260      C1263   1.263       .  A
V1261      O1457   1.892       .  S
V1261      O1460   1.914       .  S
V1262      O1461   1.892       .  S
V1262      O1464   1.914       .  S
C1263      C1318   1.485       .  S
C1264      C1360   1.485       .  S
C1265      C1378   1.485       .  S
C1266      C1300   1.485       .  S
C1267      C1414   1.485       .  S
C1267      C1268   1.400       .  A
C1267      C1272   1.421       .  A
C1268      C1269   1.391       .  A
C1268      H1273   1.084       .  S
C1269      C1285   1.491       .  S
C1269      C1270   1.391       .  A
C1270      C1271   1.400       .  A
C1270      H1274   1.084       .  S
C1271      C1272   1.421       .  A
C1272      H1275   1.083       .  S
C1276      C1277   1.421       .  A
C1276      C1281   1.400       .  A
C1277      C1278   1.421       .  A
C1277      H1282   1.083       .  S
C1278      C1411   1.485       .  S
C1278      C1279   1.400       .  A
C1279      C1280   1.391       .  A
C1279      H1283   1.084       .  S
C1280      C1288   1.491       .  S
C1280      C1281   1.391       .  A
C1281      H1284   1.084       .  S
C1286      C1304   1.491       .  S
C1286      C1287   1.416       .  A
C1287      C1313   1.491       .  S
C1289      C1322   1.491       .  S
C1289      C1290   1.416       .  A
C1290      C1293   1.491       .  S
C1291      C1398   1.485       .  S
C1291      C1292   1.400       .  A
C1291      C1296   1.421       .  A
C1292      C1293   1.391       .  A
C1292      H1297   1.084       .  S
C1293      C1294   1.391       .  A
C1294      C1295   1.400       .  A
C1294      H1298   1.084       .  S
C1295      C1296   1.421       .  A
C1296      H1299   1.083       .  S
C1300      C1301   1.421       .  A
C1300      C1305   1.400       .  A
C1301      C1302   1.421       .  A
C1301      H1306   1.083       .  S
C1302      C1427   1.485       .  S
C1302      C1303   1.400       .  A
C1303      C1304   1.391       .  A
C1303      H1307   1.084       .  S
C1304      C1305   1.391       .  A
C1305      H1308   1.084       .  S
C1309      C1399   1.485       .  S
C1309      C1310   1.421       .  A
C1309      C1314   1.400       .  A
C1310      C1311   1.421       .  A
C1310      H1315   1.083       .  S
C1311      C1312   1.400       .  A
C1312      C1313   1.391       .  A
C1312      H1316   1.084       .  S
C1313      C1314   1.391       .  A
C1314      H1317   1.084       .  S
C1318      C1319   1.421       .  A
C1318      C1323   1.400       .  A
C1319      C1320   1.421       .  A
C1319      H1324   1.083       .  S
C1320      C1426   1.485       .  S
C1320      C1321   1.400       .  A
C1321      C1322   1.391       .  A
C1321      H1325   1.084       .  S
C1322      C1323   1.391       .  A
C1323      H1326   1.084       .  S
C1327      C1412   1.485       .  S
C1327      C1328   1.400       .  A
C1327      C1332   1.421       .  A
C1328      C1329   1.391       .  A
C1328      H1333   1.084       .  S
C1329      C1345   1.491       .  S
C1329      C1330   1.391       .  A
C1330      C1331   1.400       .  A
C1330      H1334   1.084       .  S
C1331      C1332   1.421       .  A
C1332      H1335   1.083       .  S
C1336      C1337   1.421       .  A
C1336      C1341   1.400       .  A
C1337      C1338   1.421       .  A
C1337      H1342   1.083       .  S
C1338      C1413   1.485       .  S
C1338      C1339   1.400       .  A
C1339      C1340   1.391       .  A
C1339      H1343   1.084       .  S
C1340      C1348   1.491       .  S
C1340      C1341   1.391       .  A
C1341      H1344   1.084       .  S
C1346      C1364   1.491       .  S
C1346      C1347   1.416       .  A
C1347      C1355   1.491       .  S
C1349      C1380   1.491       .  S
C1349      C1350   1.416       .  A
C1350      C1371   1.491       .  S
C1351      C1397   1.485       .  S
C1351      C1352   1.421       .  A
C1351      C1356   1.400       .  A
C1352      C1353   1.421       .  A
C1352      H1357   1.083       .  S
C1353      C1354   1.400       .  A
C1354      C1355   1.391       .  A
C1354      H1358   1.084       .  S
C1355      C1356   1.391       .  A
C1356      H1359   1.084       .  S
C1360      C1361   1.421       .  A
C1360      C1365   1.400       .  A
C1361      C1362   1.421       .  A
C1361      H1366   1.083       .  S
C1362      C1425   1.485       .  S
C1362      C1363   1.400       .  A
C1363      C1364   1.391       .  A
C1363      H1367   1.084       .  S
C1364      C1365   1.391       .  A
C1365      H1368   1.084       .  S
C1369      C1400   1.485       .  S
C1369      C1370   1.400       .  A
C1369      C1374   1.421       .  A
C1370      C1371   1.391       .  A
C1370      H1375   1.084       .  S
C1371      C1372   1.391       .  A
C1372      C1373   1.400       .  A
C1372      H1376   1.084       .  S
C1373      C1374   1.421       .  A
C1374      H1377   1.083       .  S
C1378      C1379   1.400       .  A
C1378      C1383   1.421       .  A
C1379      C1380   1.391       .  A
C1379      H1384   1.084       .  S
C1380      C1381   1.391       .  A
C1381      C1382   1.400       .  A
C1381      H1385   1.084       .  S
C1382      C1428   1.485       .  S
C1382      C1383   1.421       .  A
C1383      H1386   1.083       .  S
O1387      V1395   1.914       .  S
O1387      C1397   1.263       .  A
O1388      V1395   1.892       .  S
O1389      V1395   1.914       .  S
O1389      C1399   1.263       .  A
O1390      V1395   1.892       .  S
O1391      V1396   1.914       .  S
O1391      C1400   1.263       .  A
O1392      V1396   1.892       .  S
O1393      V1396   1.914       .  S
O1393      C1398   1.263       .  A
O1394      V1396   1.892       .  S
O1401      V1409   1.892   1_554  S
O1402      V1613   1.914       .  S
O1402      C1412   1.263       .  A
O1403      V1613   1.892       .  S
O1404      V1409   1.914   1_554  S
O1404      C1414   1.263       .  A
O1405      V1614   1.892   1_554  S
O1406      V1410   1.914       .  S
O1406      C1413   1.263       .  A
O1407      V1410   1.892       .  S
O1408      V1614   1.914   1_554  S
O1408      C1411   1.263       .  A
V1409      O1606   1.914       .  S
V1409      O1607   1.892       .  S
V1410      O1609   1.892       .  S
V1410      O1612   1.914       .  S
O1415      V1423   1.914       .  S
O1415      C1425   1.263       .  A
O1416      V1423   1.892       .  S
O1416      C1426   1.269       .  A
O1417      V1423   1.914       .  S
O1417      C1427   1.263       .  A
O1418      V1423   1.892       .  S
O1418      C1428   1.269       .  A
O1419      V1424   1.914       .  S
O1419      C1428   1.263       .  A
O1420      V1424   1.892       .  S
O1420      C1427   1.269       .  A
O1421      V1424   1.914       .  S
O1421      C1426   1.263       .  A
O1422      V1424   1.892       .  S
O1422      C1425   1.269       .  A
V1423      V1424   2.086       .  T
O1429      V1437   1.914       .  S
O1429      C1439   1.263       .  A
O1430      V1437   1.892       .  S
O1431      V1437   1.914       .  S
O1431      C1441   1.263       .  A
O1432      V1437   1.892       .  S
O1433      V1438   1.914       .  S
O1433      C1442   1.263       .  A
O1434      V1438   1.892       .  S
O1435      V1438   1.914       .  S
O1435      C1440   1.263       .  A
O1436      V1438   1.892       .  S
C1439      C1535   1.485       .  S
C1440      C1480   1.485       .  S
C1441      C1475   1.485       .  S
C1442      C1540   1.485       .  S
O1443      V1451   1.892       .  S
O1443      C1453   1.269       .  A
O1444      C1454   1.263       .  A
O1445      C1455   1.269       .  A
O1446      V1451   1.914       .  S
O1446      C1456   1.263       .  A
O1447      C1456   1.269       .  A
O1448      V1452   1.914       .  S
O1448      C1455   1.263       .  A
O1449      V1452   1.892       .  S
O1449      C1454   1.269       .  A
O1450      C1453   1.263       .  A
C1453      C1499   1.485       .  S
C1454      C1557   1.485       .  S
C1455      C1577   1.485       .  S
C1456      C1515   1.485       .  S
O1458      V1465   1.914       .  S
O1458      C1468   1.263       .  A
O1459      V1465   1.892       .  S
O1460      C1470   1.263       .  A
O1462      V1466   1.914       .  S
O1462      C1469   1.263       .  A
O1463      V1466   1.892       .  S
O1464      C1467   1.263       .  A
C1467      C1522   1.485       .  S
C1468      C1564   1.485       .  S
C1469      C1582   1.485       .  S
C1470      C1504   1.485       .  S
C1471      C1618   1.485       .  S
C1471      C1472   1.400       .  A
C1471      C1476   1.421       .  A
C1472      C1473   1.391       .  A
C1472      H1477   1.084       .  S
C1473      C1489   1.491       .  S
C1473      C1474   1.391       .  A
C1474      C1475   1.400       .  A
C1474      H1478   1.084       .  S
C1475      C1476   1.421       .  A
C1476      H1479   1.083       .  S
C1480      C1481   1.421       .  A
C1480      C1485   1.400       .  A
C1481      C1482   1.421       .  A
C1481      H1486   1.083       .  S
C1482      C1615   1.485       .  S
C1482      C1483   1.400       .  A
C1483      C1484   1.391       .  A
C1483      H1487   1.084       .  S
C1484      C1492   1.491       .  S
C1484      C1485   1.391       .  A
C1485      H1488   1.084       .  S
C1490      C1508   1.491       .  S
C1490      C1491   1.416       .  A
C1491      C1517   1.491       .  S
C1493      C1526   1.491       .  S
C1493      C1494   1.416       .  A
C1494      C1497   1.491       .  S
C1495      C1602   1.485       .  S
C1495      C1496   1.400       .  A
C1495      C1500   1.421       .  A
C1496      C1497   1.391       .  A
C1496      H1501   1.084       .  S
C1497      C1498   1.391       .  A
C1498      C1499   1.400       .  A
C1498      H1502   1.084       .  S
C1499      C1500   1.421       .  A
C1500      H1503   1.083       .  S
C1504      C1505   1.421       .  A
C1504      C1509   1.400       .  A
C1505      C1506   1.421       .  A
C1505      H1510   1.083       .  S
C1506      C1631   1.485       .  S
C1506      C1507   1.400       .  A
C1507      C1508   1.391       .  A
C1507      H1511   1.084       .  S
C1508      C1509   1.391       .  A
C1509      H1512   1.084       .  S
C1513      C1603   1.485       .  S
C1513      C1514   1.421       .  A
C1513      C1518   1.400       .  A
C1514      C1515   1.421       .  A
C1514      H1519   1.083       .  S
C1515      C1516   1.400       .  A
C1516      C1517   1.391       .  A
C1516      H1520   1.084       .  S
C1517      C1518   1.391       .  A
C1518      H1521   1.084       .  S
C1522      C1523   1.421       .  A
C1522      C1527   1.400       .  A
C1523      C1524   1.421       .  A
C1523      H1528   1.083       .  S
C1524      C1630   1.485       .  S
C1524      C1525   1.400       .  A
C1525      C1526   1.391       .  A
C1525      H1529   1.084       .  S
C1526      C1527   1.391       .  A
C1527      H1530   1.084       .  S
C1531      C1616   1.485       .  S
C1531      C1532   1.400       .  A
C1531      C1536   1.421       .  A
C1532      C1533   1.391       .  A
C1532      H1537   1.084       .  S
C1533      C1549   1.491       .  S
C1533      C1534   1.391       .  A
C1534      C1535   1.400       .  A
C1534      H1538   1.084       .  S
C1535      C1536   1.421       .  A
C1536      H1539   1.083       .  S
C1540      C1541   1.421       .  A
C1540      C1545   1.400       .  A
C1541      C1542   1.421       .  A
C1541      H1546   1.083       .  S
C1542      C1617   1.485       .  S
C1542      C1543   1.400       .  A
C1543      C1544   1.391       .  A
C1543      H1547   1.084       .  S
C1544      C1552   1.491       .  S
C1544      C1545   1.391       .  A
C1545      H1548   1.084       .  S
C1550      C1568   1.491       .  S
C1550      C1551   1.416       .  A
C1551      C1559   1.491       .  S
C1553      C1584   1.491       .  S
C1553      C1554   1.416       .  A
C1554      C1575   1.491       .  S
C1555      C1601   1.485       .  S
C1555      C1556   1.421       .  A
C1555      C1560   1.400       .  A
C1556      C1557   1.421       .  A
C1556      H1561   1.083       .  S
C1557      C1558   1.400       .  A
C1558      C1559   1.391       .  A
C1558      H1562   1.084       .  S
C1559      C1560   1.391       .  A
C1560      H1563   1.084       .  S
C1564      C1565   1.421       .  A
C1564      C1569   1.400       .  A
C1565      C1566   1.421       .  A
C1565      H1570   1.083       .  S
C1566      C1629   1.485       .  S
C1566      C1567   1.400       .  A
C1567      C1568   1.391       .  A
C1567      H1571   1.084       .  S
C1568      C1569   1.391       .  A
C1569      H1572   1.084       .  S
C1573      C1604   1.485       .  S
C1573      C1574   1.400       .  A
C1573      C1578   1.421       .  A
C1574      C1575   1.391       .  A
C1574      H1579   1.084       .  S
C1575      C1576   1.391       .  A
C1576      C1577   1.400       .  A
C1576      H1580   1.084       .  S
C1577      C1578   1.421       .  A
C1578      H1581   1.083       .  S
C1582      C1583   1.400       .  A
C1582      C1587   1.421       .  A
C1583      C1584   1.391       .  A
C1583      H1588   1.084       .  S
C1584      C1585   1.391       .  A
C1585      C1586   1.400       .  A
C1585      H1589   1.084       .  S
C1586      C1632   1.485       .  S
C1586      C1587   1.421       .  A
C1587      H1590   1.083       .  S
O1591      V1599   1.914       .  S
O1591      C1601   1.263       .  A
O1592      V1599   1.892       .  S
O1593      V1599   1.914       .  S
O1593      C1603   1.263       .  A
O1594      V1599   1.892       .  S
O1595      V1600   1.914       .  S
O1595      C1604   1.263       .  A
O1596      V1600   1.892       .  S
O1597      V1600   1.914       .  S
O1597      C1602   1.263       .  A
O1598      V1600   1.892       .  S
O1605      V1613   1.892       .  S
O1606      C1616   1.263       .  A
O1608      V1613   1.914       .  S
O1608      C1618   1.263       .  A
O1610      V1614   1.914       .  S
O1610      C1617   1.263       .  A
O1611      V1614   1.892       .  S
O1612      C1615   1.263       .  A
O1619      V1627   1.914       .  S
O1619      C1629   1.263       .  A
O1620      V1627   1.892       .  S
O1620      C1630   1.269       .  A
O1621      V1627   1.914       .  S
O1621      C1631   1.263       .  A
O1622      V1627   1.892       .  S
O1622      C1632   1.269       .  A
O1623      V1628   1.914       .  S
O1623      C1632   1.263       .  A
O1624      V1628   1.892       .  S
O1624      C1631   1.269       .  A
O1625      V1628   1.914       .  S
O1625      C1630   1.263       .  A
O1626      V1628   1.892       .  S
O1626      C1629   1.269       .  A
V1627      V1628   2.086       .  T
