geometry optimzed in LAMMPS
_audit_creation_date              2020-11-30 
_audit_creation_method            'lammps2cif' 
_symmetry_space_group_name_H-M    'P1' 
_symmetry_Int_Tables_number       1 
_symmetry_cell_setting            triclinic 
loop_ 
_symmetry_equiv_pos_as_xyz 
  x,y,z 
_cell_length_a                    49.0784669507773 
_cell_length_b                    40.146864462424915 
_cell_length_c                    28.960195499437944 
_cell_angle_alpha                 90.59168306613158 
_cell_angle_beta                  89.62424737182292 
_cell_angle_gamma                 90.39121239372517 
loop_ 
_atom_site_label 
_atom_site_type_symbol 
_atom_site_fract_x 
_atom_site_fract_y 
_atom_site_fract_z 
_atom_site_charge 
C1          C  0.42985535  0.42759348  0.86089266    -0.02260
O2          O  0.48740250  0.48733212  0.42207690    -0.75060
O3          O  0.45980025  0.46409498  0.47727594    -0.53970
C4          C  0.48014374  0.48201382  0.46342927     0.78660
O5          O  0.38520025  0.49349916  0.26993053    -0.59670
O6          O  0.41004081  0.46435448  0.21616911    -0.52690
C7          C  0.39250348  0.48615064  0.22839973     0.70680
O8          O  0.37523564  0.49552193  0.42642296    -0.74220
O9          O  0.39472355  0.46431398  0.48267927    -0.54790
C10         C  0.37762086  0.48627729  0.46882544     0.76680
O11         O  0.49408150  0.47648908  0.27402153    -0.59370
O12         O  0.46577989  0.45398322  0.21983464    -0.52490
C13         C  0.48704722  0.47070108  0.23209553     0.73270
Zr14       Zr  0.47334553  0.46859518  0.34957779     2.54710
O15         O  0.47684540  0.02856246  0.33941234    -0.79930
O16         O  0.02250898  0.46114393  0.35412570    -0.93350
Zr17       Zr  0.39404424  0.48097016  0.34975401     2.64680
O18         O  0.40216218  0.04090031  0.35247708    -0.98310
O19         O  0.34528874  0.49028300  0.34278485    -0.80370
O20         O  0.43326292  0.47665856  0.39575199    -0.83720
O21         O  0.43443832  0.47499054  0.30481093    -2.18430
O22         O  0.48598672  0.35944569  0.29019047    -0.67110
O23         O  0.46278372  0.38444839  0.23196089    -0.51680
C24         C  0.48183155  0.36623066  0.24806163     0.71660
O25         O  0.36470230  0.36909383  0.41946855    -0.60020
O26         O  0.39090029  0.39322123  0.47596321    -0.52000
C27         C  0.37068553  0.37521214  0.46146128     0.73460
O28         O  0.36763017  0.37231505  0.26919107    -0.71420
O29         O  0.39807385  0.39275833  0.21670404    -0.50090
C30         C  0.37597735  0.37714481  0.22770384     0.74840
O31         O  0.47758137  0.35990580  0.43767118    -0.66750
O32         O  0.45561528  0.39275129  0.49023827    -0.53940
C33         C  0.47299633  0.36979897  0.47925839     0.73220
Zr34       Zr  0.46267595  0.37146016  0.35979763     2.77540
O35         O  0.44745510  0.31425011  0.36332581    -0.97500
O36         O  0.00939536  0.35216983  0.36639713    -0.78320
Zr37       Zr  0.38407210  0.38288151  0.34693222     2.70070
O38         O  0.38203545  0.32229231  0.34225929    -0.79560
O39         O  0.33470305  0.38893368  0.34790407    -0.98650
Zr40       Zr  0.42633087  0.42783892  0.44131390     2.21500
Zr41       Zr  0.43121452  0.42372562  0.26326640     2.11130
O42         O  0.42546107  0.37435566  0.30723832    -2.47330
O43         O  0.42116372  0.37702382  0.39932332    -0.79360
O44         O  0.46984034  0.41780134  0.31069532    -0.71550
O45         O  0.38757604  0.43210196  0.39253247    -2.32510
O46         O  0.46783161  0.42212601  0.39920886    -2.28720
O47         O  0.38946812  0.43177838  0.30377659    -0.73310
H48         H  0.43714051  0.49368655  0.28452236     0.78690
H49         H  0.37095408  0.43395822  0.41033328     0.79770
H50         H  0.42442922  0.35494893  0.28731628     0.82000
H51         H  0.48340206  0.42103265  0.41930925     0.79600
H52         H  0.33680308  0.46870631  0.35114234     0.42640
H53         H  0.33083889  0.40530894  0.32350246     0.41610
H54         H  0.38812706  0.31467292  0.37289759     0.41290
H55         H  0.43924595  0.31069285  0.33262479     0.39220
H56         H  0.02036917  0.37283468  0.36986817     0.42350
H57         H  0.02541781  0.44759140  0.38201085     0.37140
H58         H  0.45778296  0.03642907  0.33933595     0.43250
H59         H  0.40657550  0.04703969  0.32024145     0.39670
H60         H  0.46454880  0.30130538  0.36257306     0.44590
H61         H  0.02990141  0.48345007  0.36221257     0.43310
H62         H  0.38396244  0.05064782  0.35828339     0.43450
H63         H  0.32757334  0.36750093  0.33561917     0.43810
O64         O  0.48411561  0.23471355  0.92453926    -0.75060
O65         O  0.45916237  0.21147003  0.98285986    -0.53970
C66         C  0.47904791  0.22869927  0.96678713     0.78660
O67         O  0.36688989  0.23634470  0.79125988    -0.59670
O68         O  0.39001967  0.20860827  0.73401889    -0.52690
C69         C  0.37154717  0.22857793  0.74919377     0.70680
O70         O  0.37132928  0.23679816  0.94128998    -0.74220
O71         O  0.39554025  0.20925754  0.99538023    -0.54790
C72         C  0.37703274  0.22985811  0.98318086     0.76680
O73         O  0.48380760  0.22645030  0.77392183    -0.59370
O74         O  0.45339766  0.20531266  0.72213880    -0.52490
C75         C  0.47571745  0.22074306  0.73245975     0.73270
Zr76       Zr  0.46496479  0.22223612  0.85171724     2.54710
O77         O  0.45750500  0.28201148  0.84636323    -0.79930
O78         O  0.01380313  0.23319691  0.84530492    -0.93350
Zr79       Zr  0.38578504  0.22371409  0.86379655     2.64680
O80         O  0.39263029  0.28361586  0.86852545    -0.98310
O81         O  0.33653705  0.23025464  0.86719066    -0.80370
O82         O  0.42725314  0.22561376  0.90377705    -0.83720
O83         O  0.42360632  0.22396097  0.81181480    -2.18430
O84         O  0.48181188  0.11528430  0.78712602    -0.67110
O85         O  0.45532040  0.13792625  0.73115930    -0.51680
C86         C  0.47602905  0.12156534  0.74544977     0.71660
O87         O  0.37614488  0.10853067  0.94043273    -0.60020
O88         O  0.40290159  0.13587955  0.99319842    -0.52000
C89         C  0.38502710  0.11418744  0.98156107     0.73460
O90         O  0.36151348  0.11678415  0.78409652    -0.71420
O91         O  0.38966017  0.13827054  0.72868609    -0.50090
C92         C  0.36818721  0.12214934  0.74156694     0.74840
O93         O  0.47895626  0.11148672  0.93611139    -0.66750
O94         O  0.45906296  0.14442397  0.99102840    -0.53940
C95         C  0.47580998  0.12179076  0.97786059     0.73220
Zr96       Zr  0.46164242  0.12317231  0.85998638     2.77540
O97         O  0.44891993  0.06460957  0.85864882    -0.97500
O98         O  0.00957203  0.10798073  0.86157425    -0.78320
Zr99       Zr  0.38247626  0.12526862  0.86073051     2.70070
O100        O  0.38404779  0.06495320  0.85176912    -0.79560
O101        O  0.33331906  0.12373470  0.87134175    -0.98650
Zr102      Zr  0.42626986  0.17582769  0.94750021     2.21500
Zr103      Zr  0.42231341  0.17253519  0.77028663     2.11130
O104        O  0.42185774  0.12227323  0.81366187    -2.47330
O105        O  0.42265306  0.12459104  0.90608318    -0.79360
O106        O  0.46319048  0.17106071  0.81273205    -0.71550
O107        O  0.38414033  0.17450773  0.90698170    -2.32510
O108        O  0.46568454  0.17413530  0.89925904    -2.28720
O109        O  0.38297013  0.17466163  0.81813690    -0.73310
H110        H  0.42324849  0.24288205  0.79148229     0.78690
H111        H  0.36872194  0.17440799  0.92787960     0.79770
H112        H  0.42133233  0.10289530  0.79361627     0.82000
H113        H  0.48243216  0.17355758  0.91649908     0.79600
H114        H  0.32950284  0.20779048  0.87486293     0.42640
H115        H  0.32631937  0.14116498  0.85068072     0.41610
H116        H  0.39461484  0.05736643  0.87864660     0.41290
H117        H  0.45240801  0.05727066  0.82644386     0.39220
H118        H  0.01943395  0.12956211  0.86343807     0.42350
H119        H  0.02254331  0.21732756  0.86647139     0.37140
H120        H  0.46069758  0.29073524  0.87799229     0.43250
H121        H  0.40565261  0.28711897  0.89410618     0.39670
H122        H  0.46306753  0.05366412  0.87725650     0.44590
H123        H  0.01675231  0.25542662  0.85962875     0.43310
H124        H  0.37512750  0.29211709  0.88091081     0.43450
H125        H  0.32740907  0.10243437  0.85692587     0.43810
O126        O  0.20601402  0.48063645  0.97018207    -0.75060
O127        O  0.24344480  0.46439561  0.92834193    -0.53970
C128        C  0.23140907  0.47693160  0.96506475     0.78660
O129        O  0.12980454  0.36797127  0.94514946    -0.59670
O130        O  0.09478623  0.38964888  0.90363824    -0.52690
C131        C  0.10472855  0.37310488  0.93744603     0.70680
O132        O  0.21710046  0.36847494  0.95217109    -0.74220
O133        O  0.25247562  0.39582111  0.91756033    -0.54790
C134        C  0.24246225  0.37551683  0.94830152     0.76680
O135        O  0.12501843  0.49137750  0.94210849    -0.59370
O136        O  0.09234699  0.45965312  0.90714319    -0.52490
C137        C  0.10036619  0.48195838  0.93699140     0.73270
Zr138      Zr  0.17014420  0.47851344  0.91756757     2.54710
O139        O  0.16205151  0.49419917  0.99796467    -0.79930
O140        O  0.17707699  0.03747632  0.90201197    -0.93350
Zr141      Zr  0.17398035  0.38025293  0.91778312     2.64680
O142        O  0.17515073  0.37640414  0.00147942    -0.98310
O143        O  0.17399875  0.32000609  0.90695366    -0.80370
O144        O  0.19793806  0.43070205  0.92003954    -0.83720
O145        O  0.14575543  0.42800371  0.91765273    -2.18430
O146        O  0.13162860  0.48757215  0.75836365    -0.67110
O147        O  0.09598297  0.46239983  0.79583695    -0.51680
C148        C  0.10645837  0.48083659  0.76418535     0.71660
O149        O  0.22029095  0.37453001  0.75737500    -0.60020
O150        O  0.25438728  0.39445573  0.80375008    -0.52000
C151        C  0.24524306  0.37901975  0.76749970     0.73460
O152        O  0.13300345  0.36657357  0.74989132    -0.71420
O153        O  0.09707743  0.39059256  0.78734519    -0.50090
C154        C  0.10745601  0.37264871  0.75392977     0.74840
O155        O  0.21974397  0.48359947  0.75379283    -0.66750
O156        O  0.25490026  0.46411945  0.79610967    -0.53940
C157        C  0.24522833  0.47868238  0.75946698     0.73220
Zr158      Zr  0.17563103  0.47760926  0.78872475     2.77540
O159        O  0.17718333  0.48694665  0.70570808    -0.97500
O160        O  0.17734507  0.03762370  0.80156366    -0.78320
Zr161      Zr  0.17567245  0.37959156  0.78757230     2.70070
O162        O  0.17940434  0.37015186  0.70471355    -0.79560
O163        O  0.17738500  0.31992633  0.80107893    -0.98650
Zr164      Zr  0.22972782  0.43122432  0.85815261     2.21500
Zr165      Zr  0.11862651  0.42595513  0.84940245     2.11130
O166        O  0.14926704  0.42795110  0.78477438    -2.47330
O167        O  0.20184715  0.42914442  0.79092375    -0.79360
O168        O  0.14381880  0.47765205  0.85044938    -0.71550
O169        O  0.20363739  0.38009059  0.85400618    -2.32510
O170        O  0.20235630  0.48097497  0.85614538    -2.28720
O171        O  0.14612065  0.37671765  0.85148160    -0.73310
H172        H  0.13461630  0.42829688  0.94522886     0.78690
H173        H  0.21531413  0.36081693  0.85439433     0.79770
H174        H  0.13962239  0.42762852  0.75585781     0.82000
H175        H  0.21349134  0.50090439  0.85716176     0.79600
H176        H  0.19343211  0.31407484  0.90307975     0.42640
H177        H  0.15836722  0.31353358  0.80865358     0.41610
H178        H  0.17912457  0.39276450  0.69136903     0.41290
H179        H  0.16493820  0.46985216  0.69204460     0.39220
H180        H  0.15803535  0.04462764  0.80178141     0.42350
H181        H  0.19266984  0.04409149  0.92168290     0.37140
H182        H  0.15692914  0.47313061  0.01342564     0.43250
H183        H  0.16077140  0.39173373  0.01265898     0.39670
H184        H  0.16793937  0.50845784  0.70080052     0.44590
H185        H  0.16117488  0.04858723  0.91649673     0.43310
H186        H  0.16813295  0.35375802  0.00805514     0.43450
H187        H  0.18067602  0.31004803  0.77008985     0.43810
C188        C  0.17788375  0.17391152  0.86149593    -0.02260
C189        C  0.17728663  0.43006500  0.35262376    -0.02260
C190        C  0.43215625  0.17756797  0.35333173    -0.02260
O191        O  0.49044120  0.11555723  0.67047955    -0.75060
O192        O  0.01503539  0.09184161  0.72811020    -0.53970
C193        C  0.99507993  0.10895539  0.71251591     0.78660
O194        O  0.49022678  0.99191245  0.53860847    -0.59670
O195        O  0.01764686  0.01479749  0.48300520    -0.52690
C196        C  0.49712617  0.99729721  0.49712036     0.70680
O197        O  0.49442371  0.99105516  0.68615563    -0.74220
O198        O  0.01744585  0.02100092  0.74046153    -0.54790
C199        C  0.99988012  0.99867544  0.72819473     0.76680
O200        O  0.50094232  0.11883002  0.52221464    -0.59370
O201        O  0.02204115  0.08495852  0.46964868    -0.52490
C202        C  0.00515792  0.10824691  0.48075347     0.73270
Zr203      Zr  0.01440695  0.10617023  0.60079423     2.54710
O204        O  0.46647279  0.11950294  0.59120408    -0.79930
O205        O  0.02534564  0.16533383  0.60593011    -0.93350
Zr206      Zr  0.00824667  0.00789923  0.60977882     2.64680
O207        O  0.45916386  0.01541539  0.61668301    -0.98310
O208        O  0.00556257  0.44740507  0.60890409    -0.80370
O209        O  0.00969833  0.05881525  0.64934253    -0.83720
O210        O  0.01092561  0.05520879  0.56126338    -2.18430
O211        O  0.11102449  0.11241480  0.53650338    -0.67110
O212        O  0.08579820  0.08607551  0.48070009    -0.51680
C213        C  0.10539565  0.10514470  0.49478480     0.71660
O214        O  0.09756778  0.98859410  0.68744890    -0.60020
O215        O  0.07163952  0.01569786  0.74196630    -0.52000
C216        C  0.08993735  0.99506193  0.72929284     0.73460
O217        O  0.10685624  0.98831228  0.52791454    -0.71420
O218        O  0.08189473  0.01462484  0.47297741    -0.50090
C219        C  0.10148436  0.99554894  0.48534779     0.74840
O220        O  0.10970472  0.10916986  0.68607308    -0.66750
O221        O  0.08238076  0.08744595  0.74158101    -0.53940
C222        C  0.10354900  0.10423964  0.72844782     0.73220
Zr223      Zr  0.09297270  0.09858130  0.60957365     2.77540
O224        O  0.14259697  0.09716692  0.61232288    -0.97500
O225        O  0.09216430  0.15921968  0.61273348    -0.78320
Zr226      Zr  0.08794520  0.00006480  0.60670030     2.70070
O227        O  0.13681322  0.99139070  0.61248948    -0.79560
O228        O  0.08013788  0.44010383  0.60417659    -0.98650
Zr229      Zr  0.04899993  0.05535378  0.69585294     2.21500
Zr230      Zr  0.05178403  0.05092083  0.51743963     2.11130
O231        O  0.09157302  0.04925718  0.56400647    -2.47330
O232        O  0.09028077  0.04952958  0.65282704    -0.79360
O233        O  0.05522266  0.10232380  0.55875318    -0.71550
O234        O  0.04795862  0.00428225  0.65300844    -2.32510
O235        O  0.05230030  0.10513399  0.65185277    -2.28720
O236        O  0.04785054  0.00154144  0.56225251    -0.73310
H237        H  0.49500711  0.05600848  0.54191948     0.78690
H238        H  0.04644607  0.48515701  0.67282196     0.79770
H239        H  0.10797583  0.04845888  0.54549178     0.82000
H240        H  0.05295847  0.12470796  0.67151681     0.79600
H241        H  0.02156962  0.44016464  0.62672998     0.42640
H242        H  0.07252499  0.43565087  0.57312306     0.41610
H243        H  0.14464558  0.01415908  0.61430651     0.41290
H244        H  0.14813471  0.08150653  0.58739842     0.39220
H245        H  0.08373484  0.16587287  0.58328812     0.42350
H246        H  0.02322611  0.17097035  0.63910221     0.37140
H247        H  0.45715122  0.09756233  0.58972089     0.43250
H248        H  0.45420093  0.02944800  0.59015129     0.39670
H249        H  0.14872119  0.11935226  0.60161611     0.44590
H250        H  0.50984085  0.17646186  0.59092042     0.43310
H251        H  0.45125070  0.99323789  0.60939175     0.43450
H252        H  0.09861569  0.43036872  0.60297450     0.43810
O253        O  0.49291161  0.35848504  0.02358278    -0.75060
O254        O  0.01641282  0.32917464  0.96895320    -0.53970
C255        C  0.99733253  0.34900010  0.98169372     0.78660
O256        O  0.11257069  0.36361818  0.17368667    -0.59670
O257        O  0.08834851  0.33992380  0.23212647    -0.52690
C258        C  0.10856667  0.35729035  0.21703641     0.70680
O259        O  0.09660694  0.36629875  0.01468719    -0.74220
O260        O  0.06989748  0.33813649  0.96271681    -0.54790
C261        C  0.08813952  0.35949602  0.97347589     0.76680
O262        O  0.49318854  0.35605581  0.17371693    -0.59370
O263        O  0.02281131  0.34021864  0.22971328    -0.52490
C264        C  0.00056711  0.35308380  0.21541269     0.73270
Zr265      Zr  0.01282794  0.35164487  0.09990346     2.54710
O266        O  0.02230675  0.41114594  0.10047384    -0.79930
O267        O  0.46512557  0.36815047  0.10466743    -0.93350
Zr268      Zr  0.09181195  0.35395717  0.09677508     2.64680
O269        O  0.08958436  0.41454137  0.10028879    -0.98310
O270        O  0.14086756  0.35817994  0.08635821    -0.80370
O271        O  0.05133756  0.35146222  0.05253889    -0.83720
O272        O  0.05309600  0.35561695  0.14523014    -2.18430
O273        O  0.49897232  0.24358455  0.19077677    -0.67110
O274        O  0.02587505  0.27301092  0.24072134    -0.51680
C275        C  0.00612467  0.25272328  0.23156092     0.71660
O276        O  0.10770542  0.24111708  0.02100520    -0.60020
O277        O  0.08199166  0.26642709  0.96684307    -0.52000
C278        C  0.10214547  0.24813853  0.97914424     0.73460
O279        O  0.11364936  0.24588534  0.16887764    -0.71420
O280        O  0.08939371  0.27161553  0.22635269    -0.50090
C281        C  0.10875383  0.25302417  0.21092076     0.74840
O282        O  0.49293524  0.23686679  0.04111964    -0.66750
O283        O  0.01706144  0.26058910  0.98205480    -0.53940
C284        C  0.99768638  0.24272350  0.99870649     0.73220
Zr285      Zr  0.01327753  0.25292812  0.11151435     2.77540
O286        O  0.01758524  0.19261151  0.11485340    -0.97500
O287        O  0.46388505  0.25078199  0.11933222    -0.78320
Zr288      Zr  0.09242240  0.25497707  0.09752518     2.70070
O289        O  0.08761558  0.19468983  0.10207751    -0.79560
O290        O  0.14166693  0.25058901  0.08762780    -0.98650
Zr291      Zr  0.04944565  0.29900123  0.01325555     2.21500
Zr292      Zr  0.05556418  0.30597688  0.19037847     2.11130
O293        O  0.05513130  0.25399913  0.15032431    -2.47330
O294        O  0.05067842  0.24998462  0.05854337    -0.79360
O295        O  0.01415402  0.30464066  0.14903476    -0.71550
O296        O  0.09166905  0.30357700  0.05293319    -2.32510
O297        O  0.01041456  0.29985306  0.06226699    -2.28720
O298        O  0.09419875  0.30526717  0.14091189    -0.73310
H299        H  0.05310736  0.37536717  0.16458194     0.78690
H300        H  0.10696926  0.30407769  0.03181105     0.79770
H301        H  0.05637225  0.23547399  0.17121843     0.82000
H302        H  0.49350210  0.29891445  0.04550044     0.79600
H303        H  0.14747974  0.33521148  0.09095745     0.42640
H304        H  0.14957112  0.26774107  0.10849650     0.41610
H305        H  0.07527163  0.18857210  0.07640628     0.41290
H306        H  0.02502044  0.18816952  0.14586612     0.39220
H307        H  0.45835776  0.27444461  0.12111355     0.42350
H308        H  0.45495907  0.35092313  0.08697936     0.37140
H309        H  0.01270168  0.41941177  0.07294544     0.43250
H310        H  0.08545680  0.41994527  0.13301594     0.39670
H311        H  0.49856973  0.18426288  0.11631971     0.44590
H312        H  0.46370593  0.38865740  0.08615487     0.43310
H313        H  0.10866690  0.42205375  0.09577823     0.43450
H314        H  0.14666932  0.22901299  0.10138355     0.43810
O315        O  0.35509553  0.49653234  0.00627118    -0.75060
O316        O  0.38872426  0.02276579  0.04652595    -0.53970
C317        C  0.37986584  0.00543394  0.01142194     0.78660
O318        O  0.26316815  0.10534720  0.00596811    -0.59670
O319        O  0.22735669  0.07967888  0.04109759    -0.52690
C320        C  0.23766632  0.09864888  0.00904747     0.70680
O321        O  0.35041725  0.07997226  0.00767595    -0.74220
O322        O  0.38380142  0.09150667  0.05692855    -0.54790
C323        C  0.37272067  0.09475566  0.01742428     0.76680
O324        O  0.27240786  0.48168024  0.00100698    -0.59370
O325        O  0.23624837  0.00761571  0.03630471    -0.52490
C326        C  0.24747826  0.98916379  0.00390846     0.73270
Zr327      Zr  0.31102227  0.00042419  0.03992475     2.54710
O328        O  0.31029817  0.99764174  0.95598494    -0.79930
O329        O  0.31793262  0.44087741  0.04668468    -0.93350
Zr330      Zr  0.30750039  0.09805890  0.03955398     2.64680
O331        O  0.31251238  0.12073411  0.96237618    -0.98310
O332        O  0.31494703  0.15722437  0.05351719    -0.80370
O333        O  0.33505378  0.05042374  0.04155185    -0.83720
O334        O  0.28239669  0.04774537  0.03694876    -2.18430
O335        O  0.26305721  0.49137027  0.20473870    -0.67110
O336        O  0.22759158  0.01285332  0.16500533    -0.51680
C337        C  0.23759245  0.99675206  0.20017898     0.71660
O338        O  0.34615591  0.10793386  0.21181544    -0.60020
O339        O  0.38262920  0.08666260  0.17260109    -0.52000
C340        C  0.37177984  0.10271975  0.20726047     0.73460
O341        O  0.25885697  0.10780881  0.19649919    -0.71420
O342        O  0.22541543  0.08171811  0.15448115    -0.50090
C343        C  0.23404872  0.10031583  0.18819537     0.74840
O344        O  0.35054824  0.49553400  0.20159105    -0.66750
O345        O  0.38632858  0.01622244  0.15970937    -0.53940
C346        C  0.37586558  0.00035050  0.19377645     0.73220
Zr347      Zr  0.30646509  0.00113004  0.16918223     2.77540
O348        O  0.31118940  0.98361853  0.24913162    -0.97500
O349        O  0.30419632  0.44310208  0.14603382    -0.78320
Zr350      Zr  0.30435109  0.09927752  0.16998724     2.70070
O351        O  0.29959605  0.11036063  0.25239278    -0.79560
O352        O  0.30492574  0.15891352  0.15545384    -0.98650
Zr353      Zr  0.36243817  0.05271530  0.10878598     2.21500
Zr354      Zr  0.25130524  0.04565607  0.10089554     2.11130
O355        O  0.27926070  0.04900820  0.16862348    -2.47330
O356        O  0.33162622  0.05139882  0.17269831    -0.79360
O357        O  0.27958978  0.99696430  0.10221355    -0.71550
O358        O  0.33458043  0.10219866  0.10685528    -2.32510
O359        O  0.33757425  0.00101347  0.10698214    -2.28720
O360        O  0.27700347  0.09733120  0.10288533    -0.73310
H361        H  0.27308810  0.04673103  0.00775230     0.78690
H362        H  0.34551170  0.12229540  0.10788706     0.79770
H363        H  0.26849078  0.04933801  0.19652453     0.82000
H364        H  0.34976268  0.48227146  0.10798475     0.79600
H365        H  0.32946149  0.16316368  0.03113316     0.42640
H366        H  0.28641431  0.16379279  0.14404751     0.41610
H367        H  0.29880877  0.08799129  0.26647572     0.41290
H368        H  0.29851278  0.99755174  0.26761857     0.39220
H369        H  0.28490114  0.43690975  0.15159434     0.42350
H370        H  0.33426392  0.43822448  0.06607987     0.37140
H371        H  0.30847427  0.02110999  0.94630565     0.43250
H372        H  0.30138347  0.10586396  0.94244812     0.39670
H373        H  0.30356669  0.46075064  0.25023955     0.44590
H374        H  0.32426595  0.43420415  0.01543294     0.43310
H375        H  0.30277909  0.14224091  0.96297096     0.43450
H376        H  0.30549730  0.16935107  0.18656296     0.43810
C377        C  0.30164418  0.30666773  0.09987135    -0.02260
C378        C  0.04660814  0.29902025  0.60699152    -0.02260
O379        O  0.12233532  0.23692724  0.43400691    -0.75060
O380        O  0.14605209  0.20944797  0.48849586    -0.53970
C381        C  0.12704708  0.23008705  0.47643727     0.78660
O382        O  0.11739188  0.11341817  0.26886385    -0.59670
O383        O  0.14185157  0.14116144  0.21405247    -0.52690
C384        C  0.12267936  0.12084258  0.22657286     0.70680
O385        O  0.11689120  0.11358588  0.41913966    -0.74220
O386        O  0.14325734  0.13781689  0.47537528    -0.54790
C387        C  0.12306367  0.11983073  0.46096049     0.76680
O388        O  0.12171526  0.24430657  0.28559842    -0.59370
O389        O  0.14340122  0.21585134  0.22731337    -0.52490
C390        C  0.12606263  0.23708554  0.24333875     0.73270
Zr391      Zr  0.13860754  0.22475015  0.35625321     2.54710
O392        O  0.08904395  0.22663930  0.35829728    -0.79930
O393        O  0.14467185  0.28497909  0.36127676    -0.93350
Zr394      Zr  0.13504841  0.12672864  0.34587920     2.64680
O395        O  0.08538067  0.12620036  0.34825905    -0.98310
O396        O  0.13898565  0.06625216  0.34370994    -0.80370
O397        O  0.13705066  0.17429731  0.39579578    -0.83720
O398        O  0.13512392  0.17734675  0.30617694    -2.18430
O399        O  0.23141585  0.23766234  0.26868006    -0.67110
O400        O  0.20736045  0.21008028  0.21310118    -0.51680
C401        C  0.22597646  0.23116639  0.22604786     0.71660
O402        O  0.23158457  0.10742170  0.42469672    -0.60020
O403        O  0.20971372  0.13723912  0.48136724    -0.52000
C404        C  0.22763361  0.11561974  0.46776032     0.73460
O405        O  0.22267502  0.10763601  0.26518582    -0.71420
O406        O  0.19847597  0.13576196  0.21075214    -0.50090
C407        C  0.21600030  0.11418652  0.22309782     0.74840
O408        O  0.23718014  0.23414622  0.42019641    -0.66750
O409        O  0.21188616  0.20911046  0.47695592    -0.53940
C410        C  0.23159931  0.22790072  0.46244994     0.73220
Zr411      Zr  0.21796435  0.22094750  0.34642495     2.77540
O412        O  0.26753163  0.21886067  0.34221783    -0.97500
O413        O  0.21631208  0.28152326  0.34981781    -0.78320
Zr414      Zr  0.21444698  0.12249823  0.34658838     2.70070
O415        O  0.26386884  0.12077929  0.33994942    -0.79560
O416        O  0.21043084  0.06200770  0.34812933    -0.98650
Zr417      Zr  0.17751585  0.17350833  0.44043914     2.21500
Zr418      Zr  0.17470581  0.17558933  0.25812903     2.11130
O419        O  0.21608425  0.17179794  0.30124149    -2.47330
O420        O  0.21685177  0.17184040  0.39149499    -0.79360
O421        O  0.17690461  0.22470876  0.30517596    -0.71550
O422        O  0.17472940  0.12387582  0.39312965    -2.32510
O423        O  0.17963668  0.22383965  0.39748424    -2.28720
O424        O  0.17461192  0.12474088  0.30035957    -0.73310
H425        H  0.11864482  0.17846579  0.28823939     0.78690
H426        H  0.17403251  0.10425478  0.41214942     0.79770
H427        H  0.23167918  0.17103733  0.28074354     0.82000
H428        H  0.18088552  0.24307728  0.41768689     0.79600
H429        H  0.14343934  0.05990103  0.37571798     0.42640
H430        H  0.19691702  0.05644782  0.32396289     0.41610
H431        H  0.27011538  0.14224000  0.35345844     0.41290
H432        H  0.27164823  0.20467899  0.31491659     0.39220
H433        H  0.20215688  0.28761942  0.32727357     0.42350
H434        H  0.15111585  0.28944877  0.39307527     0.37140
H435        H  0.08336479  0.20379241  0.36684041     0.43250
H436        H  0.07973238  0.14237887  0.32464878     0.39670
H437        H  0.27321856  0.24156993  0.33302122     0.44590
H438        H  0.12591605  0.29390374  0.36094791     0.43310
H439        H  0.07996758  0.10416627  0.33552052     0.43450
H440        H  0.22796831  0.05390101  0.33536233     0.43810
O441        O  0.35877739  0.23671739  0.67407773    -0.75060
O442        O  0.33618345  0.26439304  0.73202413    -0.53970
C443        C  0.35432286  0.24418380  0.71631173     0.78660
O444        O  0.35935597  0.36631023  0.53723070    -0.59670
O445        O  0.33399416  0.34003962  0.48131177    -0.52690
C446        C  0.35330050  0.35968411  0.49540927     0.70680
O447        O  0.35854218  0.36801349  0.68771922    -0.74220
O448        O  0.33646981  0.33716121  0.74213739    -0.54790
C449        C  0.35372249  0.35999562  0.72999065     0.76680
O450        O  0.35466021  0.23785498  0.52382721    -0.59370
O451        O  0.33227053  0.26651489  0.46891913    -0.52490
C452        C  0.35059289  0.24514689  0.48127928     0.73270
Zr453      Zr  0.33951147  0.25103075  0.60221534     2.54710
O454        O  0.38870177  0.24426871  0.59700384    -0.79930
O455        O  0.33163755  0.19103508  0.60056908    -0.93350
Zr456      Zr  0.34412058  0.34890566  0.61080614     2.64680
O457        O  0.39330231  0.34122851  0.61260096    -0.98310
O458        O  0.34582160  0.40936567  0.61455311    -0.80370
O459        O  0.34343682  0.29877687  0.65161926    -0.83720
O460        O  0.34178328  0.30105603  0.56143568    -2.18430
O461        O  0.24351444  0.23793909  0.53885545    -0.67110
O462        O  0.26776542  0.26433080  0.48189408    -0.51680
C463        C  0.24890621  0.24431575  0.49654912     0.71660
O464        O  0.25563195  0.36928547  0.69071731    -0.60020
O465        O  0.28049396  0.34274724  0.74576099    -0.52000
C466        C  0.26274940  0.36389902  0.73290088     0.73460
O467        O  0.24707333  0.36759295  0.53177666    -0.71420
O468        O  0.26849767  0.33795164  0.47470982    -0.50090
C469        C  0.25062059  0.35959060  0.48859558     0.74840
O470        O  0.24674888  0.23839524  0.69076117    -0.66750
O471        O  0.27122575  0.26777975  0.74430689    -0.53940
C472        C  0.25272113  0.24612962  0.73280530     0.73220
Zr473      Zr  0.26018067  0.25560378  0.61285765     2.77540
O474        O  0.21093645  0.26246194  0.61714780    -0.97500
O475        O  0.25813954  0.19512915  0.61570215    -0.78320
Zr476      Zr  0.26430393  0.35378635  0.60992568     2.70070
O477        O  0.21489284  0.35647062  0.61604852    -0.79560
O478        O  0.26856456  0.41424328  0.60817320    -0.98650
Zr479      Zr  0.30383951  0.30199274  0.69915617     2.21500
Zr480      Zr  0.30097225  0.30232250  0.51699176     2.11130
O481        O  0.26147780  0.30405338  0.56614629    -2.47330
O482        O  0.26227827  0.30532156  0.65690165    -0.79360
O483        O  0.29838692  0.25232374  0.56122373    -0.71550
O484        O  0.30438846  0.35189762  0.65520230    -2.32510
O485        O  0.30140519  0.25210914  0.65356578    -2.28720
O486        O  0.30422921  0.35200520  0.56385528    -0.73310
H487        H  0.35772821  0.30059046  0.54174751     0.78690
H488        H  0.30572785  0.37148902  0.67468636     0.79770
H489        H  0.24508802  0.30448390  0.54791611     0.82000
H490        H  0.30129866  0.23262694  0.67287126     0.79600
H491        H  0.32678853  0.41615622  0.62079314     0.42640
H492        H  0.27741501  0.41905255  0.57812578     0.41610
H493        H  0.20960401  0.33572678  0.63209125     0.41290
H494        H  0.20612605  0.27498561  0.58911570     0.39220
H495        H  0.27689017  0.18818368  0.62319044     0.42350
H496        H  0.33012472  0.18458215  0.63340042     0.37140
H497        H  0.39627269  0.26591070  0.60769218     0.43250
H498        H  0.39781942  0.32951497  0.58331760     0.39670
H499        H  0.20343284  0.23981341  0.61169175     0.44590
H500        H  0.34921363  0.18153277  0.59008104     0.43310
H501        H  0.40099196  0.36390915  0.60880763     0.43450
H502        H  0.24965443  0.42225917  0.60477227     0.43810
C503        C  0.30198809  0.04898066  0.60340756    -0.02260
C504        C  0.04932931  0.04871889  0.09639310    -0.02260
C505        C  0.11593991  0.08505807  0.15503616    -0.21080
C506        C  0.10491376  0.10478522  0.19073444    -0.09120
C507        C  0.07641359  0.10624288  0.19494173     0.29740
C508        C  0.05948444  0.08903365  0.16376822    -0.21080
C509        C  0.07005557  0.06898560  0.12734631    -0.09130
C510        C  0.09902720  0.06664417  0.12465497     0.29740
F511        F  0.11155830  0.04528152  0.09503791    -0.19660
H512        H  0.13784247  0.08242838  0.15218188     0.18110
H513        H  0.03766307  0.09121774  0.16836746     0.18120
F514        F  0.06479173  0.12440309  0.22952185    -0.19640
C515        C  0.27414593  0.10151715  0.57357695    -0.21080
C516        C  0.28013416  0.06693545  0.57128558    -0.09120
C517        C  0.26792973  0.04921989  0.53343471     0.29740
C518        C  0.25126049  0.06498875  0.50073457    -0.21080
C519        C  0.24513628  0.09903023  0.50399434    -0.09130
C520        C  0.25668571  0.11698874  0.54130219     0.29740
F521        F  0.25223202  0.15017693  0.54516572    -0.19660
H522        H  0.28333987  0.11733949  0.59950673     0.18110
H523        H  0.24287475  0.05022043  0.47265356     0.18120
F524        F  0.27223743  0.01605727  0.52766316    -0.19640
C525        C  0.10892698  0.24251512  0.55955642    -0.21080
C526        C  0.10845599  0.24781637  0.51152797    -0.09120
C527        C  0.08980801  0.27200263  0.49632841     0.29740
C528        C  0.07165223  0.28803129  0.52670148    -0.21080
C529        C  0.06931496  0.28061193  0.57456441    -0.09130
C530        C  0.09073790  0.25941556  0.59051296     0.29740
F531        F  0.09734896  0.25843944  0.63568269    -0.19660
H532        H  0.12421716  0.22625053  0.57365398     0.18110
H533        H  0.06019421  0.30771612  0.51118622     0.18120
F534        F  0.08922794  0.28151858  0.45147349    -0.19640
C535        C  0.26786327  0.25638847  0.11805184    -0.21080
C536        C  0.28056321  0.28692953  0.13230211    -0.09120
C537        C  0.27224510  0.29872040  0.17689975     0.29740
C538        C  0.25418867  0.28078253  0.20494306    -0.21080
C539        C  0.24281539  0.25020580  0.19123491    -0.09130
C540        C  0.24955390  0.23835566  0.14674187     0.29740
F541        F  0.23941068  0.20874018  0.13148245    -0.19660
H542        H  0.27279040  0.24545976  0.08476599     0.18110
H543        H  0.24918186  0.29122459  0.23858131     0.18120
F544        F  0.28099765  0.32767083  0.19558361    -0.19640
C545        C  0.42997949  0.14413738  0.27402255    -0.21080
C546        C  0.41743373  0.15390696  0.31673471    -0.09120
C547        C  0.39076732  0.14094186  0.32412133     0.29740
C548        C  0.37677236  0.12374278  0.28894502    -0.21080
C549        C  0.38884923  0.11700595  0.24554651    -0.09130
C550        C  0.41613102  0.12611517  0.23943445     0.29740
F551        F  0.42928730  0.11894576  0.19920517    -0.19660
H552        H  0.45052950  0.15045241  0.26522901     0.18110
H553        H  0.35604833  0.11570509  0.29590018     0.18120
F554        F  0.37774684  0.14440987  0.36530904    -0.19640
C555        C  0.47810310  0.18758827  0.31064724    -0.21080
C556        C  0.45278717  0.20116844  0.32636544    -0.09120
C557        C  0.44893133  0.23540950  0.31684914     0.29740
C558        C  0.46711678  0.25282590  0.28768566    -0.21080
C559        C  0.49049869  0.23753975  0.26966739    -0.09130
C560        C  0.99617478  0.20501609  0.28237094     0.29740
F561        F  0.01851031  0.18927826  0.26515667    -0.19660
H562        H  0.48346868  0.16208121  0.31794643     0.18110
H563        H  0.46256322  0.27812635  0.27792429     0.18120
F564        F  0.42810747  0.25273628  0.33528927    -0.19640
C565        C  0.45363696  0.12235659  0.38502040    -0.21080
C566        C  0.45134406  0.15750166  0.38581357    -0.09120
C567        C  0.46869933  0.17548454  0.41650748     0.29740
C568        C  0.48678609  0.15917509  0.44530669    -0.21080
C569        C  0.48879120  0.12446731  0.44457962    -0.09130
C570        C  0.47214508  0.10608742  0.41410666     0.29740
F571        F  0.97266590  0.07233822  0.41450746    -0.19660
H572        H  0.44101496  0.10723233  0.36252581     0.18110
H573        H  0.49903557  0.17383555  0.46909610     0.18120
F574        F  0.46758436  0.20924235  0.41947970    -0.19640
C575        C  0.40786079  0.18950358  0.43327317    -0.21080
C576        C  0.40979663  0.19613276  0.38523574    -0.09120
C577        C  0.38825053  0.21630231  0.36807508     0.29740
C578        C  0.36923974  0.23262876  0.39825404    -0.21080
C579        C  0.36942926  0.22753892  0.44652767    -0.09130
C580        C  0.38874171  0.20448883  0.46268717     0.29740
F581        F  0.38932058  0.19534810  0.50769502    -0.19660
H582        H  0.42053938  0.17136657  0.44969143     0.18110
H583        H  0.35411231  0.24885031  0.38360270     0.18120
F584        F  0.38514412  0.21983615  0.32183762    -0.19640
C585        C  0.16808196  0.40559710  0.26918969    -0.21080
C586        C  0.16288179  0.40476535  0.31763735    -0.09120
C587        C  0.14397390  0.37996318  0.33179216     0.29740
C588        C  0.12634157  0.36444871  0.29940830    -0.21080
C589        C  0.12862725  0.37096204  0.25160528    -0.09130
C590        C  0.15104518  0.39008314  0.23707841     0.29740
F591        F  0.15661896  0.39449526  0.19155062    -0.19660
H592        H  0.18518123  0.41882355  0.25454596     0.18110
H593        H  0.11055235  0.34784006  0.31198327     0.18120
F594        F  0.14081857  0.37291163  0.37727015    -0.19640
C595        C  0.23494932  0.46352280  0.27340371    -0.21080
C596        C  0.22107190  0.48334551  0.24090777    -0.09120
C597        C  0.19379114  0.49110688  0.25160691     0.29740
C598        C  0.18081390  0.47730799  0.29129377    -0.21080
C599        C  0.19441710  0.45487046  0.32150274    -0.09130
C600        C  0.22248390  0.45032824  0.31277817     0.29740
F601        F  0.23836487  0.43180675  0.34048274    -0.19660
H602        H  0.25612941  0.45721340  0.26838608     0.18110
H603        H  0.15926524  0.48184591  0.29616025     0.18120
F604        F  0.17940699  0.51112485  0.22342076    -0.19640
C605        C  0.12705841  0.44380683  0.38268825    -0.21080
C606        C  0.15538951  0.45160641  0.38069219    -0.09120
C607        C  0.16320589  0.48035918  0.40679067     0.29740
C608        C  0.14598304  0.49391706  0.44129196    -0.21080
C609        C  0.11940759  0.48167420  0.44794103    -0.09130
C610        C  0.10960239  0.45800447  0.41618513     0.29740
F611        F  0.08313233  0.44803961  0.41802272    -0.19660
H612        H  0.11754031  0.42685136  0.35882306     0.18110
H613        H  0.15346937  0.01414727  0.46286823     0.18120
F614        F  0.18841737  0.49402805  0.40152771    -0.19640
C615        C  0.20220930  0.42279656  0.43333755    -0.21080
C616        C  0.19595385  0.40998414  0.38852017    -0.09120
C617        C  0.20906039  0.37907826  0.37754605     0.29740
C618        C  0.22681538  0.36307726  0.40917492    -0.21080
C619        C  0.23248894  0.37668551  0.45333448    -0.09130
C620        C  0.21977597  0.40702720  0.46436105     0.29740
F621        F  0.22469608  0.42244208  0.50546514    -0.19660
H622        H  0.19393510  0.44542238  0.44660725     0.18110
H623        H  0.23613719  0.33976488  0.39891460     0.18120
F624        F  0.20581810  0.36454011  0.33546151    -0.19640
C625        C  0.11918812  0.11582641  0.81040271    -0.21080
C626        C  0.12263288  0.11964278  0.76278753    -0.09120
C627        C  0.14411515  0.14027389  0.74763617     0.29740
C628        C  0.16112371  0.15650060  0.77883751    -0.21080
C629        C  0.15927180  0.15216642  0.82738345    -0.09130
C630        C  0.13648727  0.13223283  0.84210174     0.29740
F631        F  0.12733989  0.13260744  0.88602527    -0.19660
H632        H  0.10205079  0.10152529  0.82344864     0.18110
H633        H  0.17433926  0.17455851  0.76298963     0.18120
F634        F  0.14827349  0.14669106  0.70214522    -0.19640
C635        C  0.13253348  0.20679226  0.87238036    -0.21080
C636        C  0.15879350  0.19798129  0.88873757    -0.09120
C637        C  0.16714804  0.21247945  0.93104277     0.29740
C638        C  0.14874059  0.22998053  0.95857841    -0.21080
C639        C  0.12163944  0.23460320  0.94474540    -0.09130
C640        C  0.11402175  0.22439716  0.90031586     0.29740
F641        F  0.08842459  0.22985931  0.88476535    -0.19660
H642        H  0.12574976  0.19935656  0.83834658     0.18110
H643        H  0.15568967  0.23944118  0.99166835     0.18120
F644        F  0.19312227  0.20976026  0.94623536    -0.19640
C645        C  0.17925429  0.13305233  0.93360390    -0.21080
C646        C  0.19342723  0.15129501  0.89842661    -0.09120
C647        C  0.22225598  0.15230786  0.90445112     0.29740
C648        C  0.23520554  0.13367668  0.93809716    -0.21080
C649        C  0.22105501  0.11487181  0.97145279    -0.09130
C650        C  0.19256032  0.11480936  0.96859890     0.29740
F651        F  0.17736900  0.09880728  0.00091266    -0.19660
H652        H  0.15783653  0.13553774  0.93850586     0.18110
H653        H  0.25710942  0.13607433  0.93917899     0.18120
F654        F  0.23880861  0.17457502  0.88327729    -0.19640
C655        C  0.21964085  0.24659083  0.79999506    -0.21080
C656        C  0.23660916  0.22870205  0.76966932    -0.09120
C657        C  0.23553513  0.19376275  0.77120113     0.29740
C658        C  0.21783148  0.17729854  0.80198034    -0.21080
C659        C  0.19931317  0.19475444  0.83147967    -0.09130
C660        C  0.20099780  0.23032803  0.82970924     0.29740
F661        F  0.18438526  0.25024913  0.85507217    -0.19660
H662        H  0.21988854  0.27354766  0.79912654     0.18110
H663        H  0.21771965  0.15030882  0.80175644     0.18120
F664        F  0.25149032  0.17535328  0.74238038    -0.19640
C665        C  0.08784757  0.33347246  0.63752750    -0.21080
C666        C  0.06106095  0.32159577  0.64458580    -0.09120
C667        C  0.04817503  0.33179938  0.68686074     0.29740
C668        C  0.06267789  0.34910470  0.72185277    -0.21080
C669        C  0.09017498  0.35786563  0.71575471    -0.09130
C670        C  0.10208322  0.35093620  0.67203475     0.29740
F671        F  0.12781689  0.36122923  0.66201412    -0.19660
H672        H  0.09825883  0.32921425  0.60500499     0.18110
H673        H  0.05246531  0.35501316  0.75413945     0.18120
F674        F  0.02142681  0.32540965  0.69487261    -0.19640
C675        C  0.07704661  0.04677972  0.02173519    -0.21080
C676        C  0.06314996  0.02827001  0.05604054    -0.09120
C677        C  0.05783389  0.49404825  0.04523371     0.29740
C678        C  0.06760461  0.47933462  0.00388753    -0.21080
C679        C  0.08186479  0.49819989  0.97107867    -0.09130
C680        C  0.08580525  0.03236461  0.98021666     0.29740
F681        F  0.09957601  0.05168777  0.94956536    -0.19660
H682        H  0.08065839  0.07320238  0.02691906     0.18110
H683        H  0.06481984  0.45280427  0.99830143     0.18120
F684        F  0.04222650  0.47463556  0.07272272    -0.19640
C685        C  0.28147442  0.37400896  0.00596727    -0.21080
C686        C  0.25969907  0.35830046  0.98351182    -0.09120
C687        C  0.25143791  0.32686265  0.99996212     0.29740
C688        C  0.26384244  0.31233112  0.03815929    -0.21080
C689        C  0.28536833  0.32783107  0.06274338    -0.09130
C690        C  0.29440132  0.35913205  0.04413467     0.29740
F691        F  0.31750955  0.37420421  0.05906880    -0.19660
H692        H  0.28850866  0.39795476  0.99381931     0.18110
H693        H  0.25645770  0.28804424  0.04699236     0.18120
F694        F  0.23117802  0.30951785  0.97860628    -0.19640
C695        C  0.24800371  0.49986201  0.67808677    -0.21080
C696        C  0.26223093  0.49132217  0.71859961    -0.09120
C697        C  0.29056952  0.49708587  0.71773693     0.29740
C698        C  0.30329993  0.01233939  0.67870738    -0.21080
C699        C  0.28821158  0.02439166  0.64004393    -0.09130
C700        C  0.26002028  0.01660424  0.64095121     0.29740
F701        F  0.24284154  0.02541884  0.60701572    -0.19660
H702        H  0.22643266  0.49478646  0.67515713     0.18110
H703        H  0.32505989  0.01670929  0.68017175     0.18120
F704        F  0.30584962  0.48940167  0.75495218    -0.19640
C705        C  0.36376765  0.09151577  0.66750552    -0.21400
C706        C  0.35089668  0.10750445  0.70441668    -0.09120
C707        C  0.32225400  0.10794017  0.70555041     0.29740
C708        C  0.30702288  0.09178879  0.67058778    -0.21080
C709        C  0.31973183  0.07374510  0.63398969    -0.09130
C710        C  0.34901997  0.07412128  0.63397700     0.29740
F711        F  0.36459107  0.05533244  0.60524671    -0.19660
H712        H  0.38583113  0.09038197  0.66629965     0.18110
H713        H  0.28502701  0.09148326  0.67381131     0.18120
F714        F  0.30896412  0.12366256  0.74065811    -0.19640
C715        C  0.50958499  0.05387849  0.04199706    -0.21080
C716        C  0.02951887  0.07089844  0.06871939    -0.09120
C717        C  0.03083246  0.10614535  0.06525940     0.29740
C718        C  0.01204287  0.12305593  0.03784929    -0.21080
C719        C  0.49251019  0.10534334  0.01224733    -0.09130
C720        C  0.49145518  0.07069970  0.01447096     0.29740
F721        F  0.47302277  0.05298301  0.98926679    -0.19660
H722        H  0.50796865  0.02697952  0.04280071     0.18110
H723        H  0.01370687  0.14984969  0.03453099     0.18120
F724        F  0.05096905  0.12440441  0.08513691    -0.19640
C725        C  0.33628221  0.29863962  0.03477453    -0.21080
C726        C  0.32065842  0.28342740  0.07011654    -0.09120
C727        C  0.32824402  0.25022779  0.08171190     0.29740
C728        C  0.34791406  0.23291430  0.05529977    -0.21080
C729        C  0.36082433  0.24823079  0.01775330    -0.09130
C730        C  0.35553210  0.28162756  0.00910058     0.29740
F731        F  0.36928529  0.29822163  0.97545232    -0.19660
H732        H  0.33460261  0.32448212  0.02678343     0.18110
H733        H  0.35315405  0.20770091  0.06433369     0.18120
F734        F  0.31946316  0.23566569  0.12116750    -0.19640
C735        C  0.03787815  0.25049163  0.66539138    -0.21080
C736        C  0.02705005  0.27364885  0.63388724    -0.09120
C737        C  0.49768924  0.27641635  0.63538003     0.29740
C738        C  0.48143193  0.25606891  0.66337374    -0.21080
C739        C  0.49297477  0.23461372  0.69493544    -0.09130
C740        C  0.02141564  0.23183047  0.69560005     0.29740
F741        F  0.03350928  0.21200927  0.72705286    -0.19660
H742        H  0.05918866  0.24849988  0.67080521     0.18110
H743        H  0.45960172  0.26004387  0.66414435     0.18120
F744        F  0.48387370  0.30193351  0.61645486    -0.19640
C745        C  0.33452034  0.37683669  0.17800846    -0.21080
C746        C  0.35909846  0.36219776  0.19094653    -0.09120
C747        C  0.36498179  0.33019611  0.17504533     0.29740
C748        C  0.34658854  0.31302610  0.14689447    -0.21080
C749        C  0.32199788  0.32759529  0.13101728    -0.09130
C750        C  0.31637110  0.36017917  0.14803949     0.29740
F751        F  0.29211833  0.37473657  0.13915797    -0.19660
H752        H  0.32895659  0.40069543  0.19280457     0.18110
H753        H  0.35201902  0.28774780  0.13869026     0.18120
F754        F  0.38791083  0.31459674  0.18911061    -0.19640
C755        C  0.04550578  0.00216255  0.15709259    -0.21080
C756        C  0.03244586  0.02716186  0.13132738    -0.09120
C757        C  0.50462930  0.03379081  0.14299288     0.29740
C758        C  0.49010987  0.01325051  0.17273406    -0.21080
C759        C  0.50290501  0.48765679  0.19595970    -0.09130
C760        C  0.03096207  0.48269781  0.18917573     0.29740
F761        F  0.04422406  0.45914633  0.21348336    -0.19660
H762        H  0.06704594  0.99761394  0.15194699     0.18110
H763        H  0.46897046  0.01898553  0.18030136     0.18120
F764        F  0.49145903  0.06165419  0.12965831    -0.19640
C765        C  0.00439853  0.37104354  0.54863706    -0.21080
C766        C  0.48964926  0.35297867  0.51518852    -0.09120
C767        C  0.49422726  0.31856363  0.51130914     0.29740
C768        C  0.51268329  0.30270444  0.54016015    -0.21080
C769        C  0.02777408  0.32021395  0.57453879    -0.09130
C770        C  0.02335727  0.35524122  0.57771117     0.29740
F771        F  0.03727177  0.37476798  0.60795949    -0.19660
H772        H  0.00202822  0.39776625  0.55093749     0.18110
H773        H  0.51501170  0.27599471  0.53631729     0.18120
F774        F  0.48068925  0.29995611  0.47932408    -0.19640
C775        C  0.35133515  0.03489240  0.49975445    -0.21080
C776        C  0.35868258  0.50144668  0.50349767    -0.09120
C777        C  0.34665435  0.48243619  0.53891960     0.29740
C778        C  0.32806663  0.49684197  0.57051978    -0.21080
C779        C  0.32132830  0.03095619  0.56811976    -0.09130
C780        C  0.33326949  0.04954693  0.53136406     0.29740
F781        F  0.32863585  0.08270275  0.52749244    -0.19660
H782        H  0.36013079  0.05008874  0.47270780     0.18110
H783        H  0.31924599  0.48113159  0.59682213     0.18120
F784        F  0.35215747  0.44950258  0.54180180    -0.19640
C785        C  0.39502466  0.47067847  0.89337391    -0.21080
C786        C  0.41932154  0.45293991  0.89912258    -0.09120
C787        C  0.43416994  0.46025738  0.94074580     0.29740
C788        C  0.42268219  0.47939299  0.97704058    -0.21080
C789        C  0.39724474  0.49418604  0.97170317    -0.09130
C790        C  0.38488348  0.99180643  0.92784111     0.29740
F791        F  0.36163123  0.00863467  0.91900470    -0.19660
H792        H  0.38295949  0.46816999  0.86276758     0.18110
H793        H  0.43320472  0.48148969  0.00970343     0.18120
F794        F  0.45974152  0.44857799  0.94710259    -0.19640
C795        C  0.46281152  0.47643153  0.83924588    -0.21080
C796        C  0.44930316  0.44630496  0.82685356    -0.09120
C797        C  0.45589084  0.43222623  0.78306002     0.29740
C798        C  0.47237582  0.44935080  0.75186275    -0.21080
C799        C  0.48442453  0.98002731  0.76377215    -0.09130
C800        C  0.48063250  0.99252200  0.80865116     0.29740
F801        F  0.49395611  0.02045755  0.82291055    -0.19660
H802        H  0.46019829  0.48783105  0.87279967     0.18110
H803        H  0.47600567  0.43816198  0.71819599     0.18120
F804        F  0.44684202  0.40146128  0.77035933    -0.19640
C805        C  0.39893191  0.37654809  0.83466910    -0.21080
C806        C  0.40576070  0.41103510  0.83168213    -0.09120
C807        C  0.39296159  0.42850556  0.79503585     0.29740
C808        C  0.37562283  0.41216729  0.76327842    -0.21080
C809        C  0.36971891  0.37800188  0.76667056    -0.09130
C810        C  0.38114575  0.36066371  0.80335116     0.29740
F811        F  0.37678497  0.32743296  0.80665275    -0.19660
H812        H  0.40812187  0.36055955  0.85965389     0.18110
H813        H  0.36730183  0.42625039  0.73501385     0.18120
F814        F  0.39905258  0.46098093  0.78693911    -0.19640
C815        C  0.47382704  0.39284336  0.87509677    -0.21080
C816        C  0.44628097  0.40016499  0.88626879    -0.09120
C817        C  0.43506110  0.38474369  0.92606756     0.29740
C818        C  0.45154089  0.36679158  0.95587788    -0.21080
C819        C  0.47930665  0.36253919  0.94621810    -0.09130
C820        C  0.99002057  0.37423995  0.90450484     0.29740
F821        F  0.01681894  0.37028369  0.89397815    -0.19660
H822        H  0.48391579  0.40279422  0.84505539     0.18110
H823        H  0.44279469  0.35727171  0.98759949     0.18120
F824        F  0.40860083  0.38956568  0.93831413    -0.19640
C825        C  0.42985534  0.92759350  0.86089266    -0.02260
O826        O  0.48740249  0.98733212  0.42207690    -0.75060
O827        O  0.45980024  0.96409498  0.47727595    -0.53970
C828        C  0.48014374  0.98201382  0.46342928     0.78660
O829        O  0.38520024  0.99349918  0.26993052    -0.59670
O830        O  0.41004080  0.96435450  0.21616910    -0.52690
C831        C  0.39250348  0.98615066  0.22839971     0.70680
O832        O  0.37523563  0.99552193  0.42642296    -0.74220
O833        O  0.39472354  0.96431398  0.48267927    -0.54790
C834        C  0.37762086  0.98627730  0.46882544     0.76680
O835        O  0.49408149  0.97648909  0.27402152    -0.59370
O836        O  0.46577989  0.95398323  0.21983463    -0.52490
C837        C  0.48704721  0.97070109  0.23209552     0.73270
Zr838      Zr  0.47334552  0.96859520  0.34957779     2.54710
O839        O  0.47684541  0.52856245  0.33941234    -0.79930
O840        O  0.02250897  0.96114394  0.35412570    -0.93350
Zr841      Zr  0.39404423  0.98097017  0.34975400     2.64680
O842        O  0.40216220  0.54090030  0.35247708    -0.98310
O843        O  0.34528873  0.99028298  0.34278484    -0.80370
O844        O  0.43326291  0.97665857  0.39575199    -0.83720
O845        O  0.43443831  0.97499055  0.30481093    -2.18430
O846        O  0.48598671  0.85944569  0.29019046    -0.67110
O847        O  0.46278372  0.88444840  0.23196088    -0.51680
C848        C  0.48183154  0.86623067  0.24806163     0.71660
O849        O  0.36470230  0.86909383  0.41946854    -0.60020
O850        O  0.39090028  0.89322123  0.47596320    -0.52000
C851        C  0.37068553  0.87521214  0.46146128     0.73460
O852        O  0.36763015  0.87231507  0.26919106    -0.71420
O853        O  0.39807384  0.89275834  0.21670403    -0.50090
C854        C  0.37597734  0.87714483  0.22770384     0.74840
O855        O  0.47758137  0.85990581  0.43767117    -0.66750
O856        O  0.45561527  0.89275129  0.49023827    -0.53940
C857        C  0.47299633  0.86979897  0.47925837     0.73220
Zr858      Zr  0.46267595  0.87146017  0.35979762     2.77540
O859        O  0.44745508  0.81425013  0.36332582    -0.97500
O860        O  0.00939536  0.85216985  0.36639712    -0.78320
Zr861      Zr  0.38407209  0.88288151  0.34693222     2.70070
O862        O  0.38203546  0.82229232  0.34225926    -0.79560
O863        O  0.33470304  0.88893367  0.34790408    -0.98650
Zr864      Zr  0.42633087  0.92783892  0.44131390     2.21500
Zr865      Zr  0.43121452  0.92372564  0.26326639     2.11130
O866        O  0.42546106  0.87435568  0.30723831    -2.47330
O867        O  0.42116371  0.87702383  0.39932331    -0.79360
O868        O  0.46984033  0.91780135  0.31069532    -0.71550
O869        O  0.38757603  0.93210196  0.39253246    -2.32510
O870        O  0.46783160  0.92212602  0.39920886    -2.28720
O871        O  0.38946811  0.93177839  0.30377659    -0.73310
H872        H  0.43714050  0.99368656  0.28452236     0.78690
H873        H  0.37095407  0.93395822  0.41033328     0.79770
H874        H  0.42442921  0.85494894  0.28731627     0.82000
H875        H  0.48340205  0.92103266  0.41930924     0.79600
H876        H  0.33680308  0.96870630  0.35114234     0.42640
H877        H  0.33083888  0.90530894  0.32350248     0.41610
H878        H  0.38812705  0.81467292  0.37289758     0.41290
H879        H  0.43924594  0.81069287  0.33262479     0.39220
H880        H  0.02036916  0.87283470  0.36986816     0.42350
H881        H  0.02541781  0.94759141  0.38201085     0.37140
H882        H  0.45778298  0.53642906  0.33933596     0.43250
H883        H  0.40657551  0.54703968  0.32024145     0.39670
H884        H  0.46454879  0.80130540  0.36257308     0.44590
H885        H  0.02990140  0.98345009  0.36221257     0.43310
H886        H  0.38396246  0.55064782  0.35828341     0.43450
H887        H  0.32757334  0.86750092  0.33561917     0.43810
O888        O  0.48411559  0.73471355  0.92453927    -0.75060
O889        O  0.45916235  0.71147003  0.98285987    -0.53970
C890        C  0.47904789  0.72869927  0.96678714     0.78660
O891        O  0.36688988  0.73634469  0.79125989    -0.59670
O892        O  0.39001966  0.70860827  0.73401889    -0.52690
C893        C  0.37154717  0.72857792  0.74919378     0.70680
O894        O  0.37132926  0.73679816  0.94128999    -0.74220
O895        O  0.39554023  0.70925754  0.99538024    -0.54790
C896        C  0.37703272  0.72985810  0.98318087     0.76680
O897        O  0.48380758  0.72645030  0.77392185    -0.59370
O898        O  0.45339766  0.70531265  0.72213881    -0.52490
C899        C  0.47571744  0.72074306  0.73245976     0.73270
Zr900      Zr  0.46496477  0.72223612  0.85171726     2.54710
O901        O  0.45750498  0.78201148  0.84636324    -0.79930
O902        O  0.01380311  0.73319690  0.84530494    -0.93350
Zr903      Zr  0.38578502  0.72371408  0.86379656     2.64680
O904        O  0.39263027  0.78361585  0.86852546    -0.98310
O905        O  0.33653703  0.73025463  0.86719066    -0.80370
O906        O  0.42725312  0.72561375  0.90377706    -0.83720
O907        O  0.42360631  0.72396096  0.81181481    -2.18430
O908        O  0.48181187  0.61528429  0.78712603    -0.67110
O909        O  0.45532039  0.63792624  0.73115932    -0.51680
C910        C  0.47602904  0.62156533  0.74544979     0.71660
O911        O  0.37614490  0.60853063  0.94043274    -0.60020
O912        O  0.40290159  0.63587953  0.99319842    -0.52000
C913        C  0.38502712  0.61418739  0.98156107     0.73460
O914        O  0.36151348  0.61678414  0.78409652    -0.71420
O915        O  0.38966016  0.63827054  0.72868609    -0.50090
C916        C  0.36818721  0.62214933  0.74156695     0.74840
O917        O  0.47895624  0.61148672  0.93611141    -0.66750
O918        O  0.45906295  0.64442397  0.99102841    -0.53940
C919        C  0.47580996  0.62179075  0.97786060     0.73220
Zr920      Zr  0.46164241  0.62317231  0.85998640     2.77540
O921        O  0.44891992  0.56460957  0.85864883    -0.97500
O922        O  0.00957201  0.60798075  0.86157427    -0.78320
Zr923      Zr  0.38247625  0.62526861  0.86073052     2.70070
O924        O  0.38404774  0.56495320  0.85176913    -0.79560
O925        O  0.33331904  0.62373474  0.87134173    -0.98650
Zr926      Zr  0.42626984  0.67582769  0.94750022     2.21500
Zr927      Zr  0.42231340  0.67253519  0.77028664     2.11130
O928        O  0.42185773  0.62227323  0.81366188    -2.47330
O929        O  0.42265305  0.62459104  0.90608318    -0.79360
O930        O  0.46319047  0.67106071  0.81273206    -0.71550
O931        O  0.38414031  0.67450772  0.90698172    -2.32510
O932        O  0.46568453  0.67413530  0.89925906    -2.28720
O933        O  0.38297011  0.67466162  0.81813691    -0.73310
H934        H  0.42324847  0.74288204  0.79148230     0.78690
H935        H  0.36872192  0.67440798  0.92787962     0.79770
H936        H  0.42133231  0.60289530  0.79361629     0.82000
H937        H  0.48243215  0.67355758  0.91649910     0.79600
H938        H  0.32950282  0.70779047  0.87486299     0.42640
H939        H  0.32631937  0.64116502  0.85068068     0.41610
H940        H  0.39461482  0.55736642  0.87864656     0.41290
H941        H  0.45240800  0.55727066  0.82644387     0.39220
H942        H  0.01943392  0.62956213  0.86343808     0.42350
H943        H  0.02254329  0.71732755  0.86647142     0.37140
H944        H  0.46069756  0.79073523  0.87799230     0.43250
H945        H  0.40565258  0.78711896  0.89410619     0.39670
H946        H  0.46306753  0.55366412  0.87725651     0.44590
H947        H  0.01675229  0.75542660  0.85962876     0.43310
H948        H  0.37512747  0.79211708  0.88091080     0.43450
H949        H  0.32740904  0.60243441  0.85692587     0.43810
O950        O  0.20601401  0.98063643  0.97018207    -0.75060
O951        O  0.24344479  0.96439560  0.92834193    -0.53970
C952        C  0.23140906  0.97693158  0.96506476     0.78660
O953        O  0.12980454  0.86797126  0.94514946    -0.59670
O954        O  0.09478623  0.88964888  0.90363824    -0.52690
C955        C  0.10472855  0.87310488  0.93744602     0.70680
O956        O  0.21710046  0.86847495  0.95217110    -0.74220
O957        O  0.25247561  0.89582111  0.91756033    -0.54790
C958        C  0.24246225  0.87551684  0.94830152     0.76680
O959        O  0.12501842  0.99137751  0.94210847    -0.59370
O960        O  0.09234699  0.95965312  0.90714318    -0.52490
C961        C  0.10036618  0.98195839  0.93699139     0.73270
Zr962      Zr  0.17014420  0.97851345  0.91756756     2.54710
O963        O  0.16205150  0.99419920  0.99796465    -0.79930
O964        O  0.17707697  0.53747631  0.90201195    -0.93350
Zr965      Zr  0.17398034  0.88025294  0.91778313     2.64680
O966        O  0.17515073  0.87640420  0.00147943    -0.98310
O967        O  0.17399875  0.82000610  0.90695371    -0.80370
O968        O  0.19793806  0.93070207  0.92003954    -0.83720
O969        O  0.14575543  0.92800372  0.91765273    -2.18430
O970        O  0.13162860  0.98757214  0.75836362    -0.67110
O971        O  0.09598296  0.96239982  0.79583693    -0.51680
C972        C  0.10645837  0.98083658  0.76418533     0.71660
O973        O  0.22029095  0.87452999  0.75737502    -0.60020
O974        O  0.25438727  0.89445573  0.80375008    -0.52000
C975        C  0.24524306  0.87901974  0.76749971     0.73460
O976        O  0.13300344  0.86657356  0.74989133    -0.71420
O977        O  0.09707742  0.89059256  0.78734519    -0.50090
C978        C  0.10745600  0.87264870  0.75392977     0.74840
O979        O  0.21974396  0.98359947  0.75379282    -0.66750
O980        O  0.25490025  0.96411945  0.79610967    -0.53940
C981        C  0.24522833  0.97868237  0.75946697     0.73220
Zr982      Zr  0.17563102  0.97760925  0.78872474     2.77540
O983        O  0.17718333  0.98694664  0.70570807    -0.97500
O984        O  0.17734508  0.53762371  0.80156368    -0.78320
Zr985      Zr  0.17567245  0.87959155  0.78757230     2.70070
O986        O  0.17940434  0.87015185  0.70471356    -0.79560
O987        O  0.17738497  0.81992632  0.80107893    -0.98650
Zr988      Zr  0.22972781  0.93122432  0.85815261     2.21500
Zr989      Zr  0.11862650  0.92595512  0.84940245     2.11130
O990        O  0.14926704  0.92795109  0.78477438    -2.47330
O991        O  0.20184715  0.92914441  0.79092374    -0.79360
O992        O  0.14381880  0.97765205  0.85044937    -0.71550
O993        O  0.20363738  0.88009059  0.85400618    -2.32510
O994        O  0.20235630  0.98097497  0.85614537    -2.28720
O995        O  0.14612065  0.87671766  0.85148161    -0.73310
H996        H  0.13461630  0.92829689  0.94522885     0.78690
H997        H  0.21531412  0.86081694  0.85439434     0.79770
H998        H  0.13962238  0.92762851  0.75585780     0.82000
H999        H  0.21349134  0.00090440  0.85716174     0.79600
H1000       H  0.19343210  0.81407486  0.90307971     0.42640
H1001       H  0.15836721  0.81353361  0.80865377     0.41610
H1002       H  0.17912456  0.89276450  0.69136904     0.41290
H1003       H  0.16493820  0.96985214  0.69204458     0.39220
H1004       H  0.15803536  0.54462766  0.80178137     0.42350
H1005       H  0.19266988  0.54409145  0.92168277     0.37140
H1006       H  0.15692913  0.97313065  0.01342563     0.43250
H1007       H  0.16077137  0.89173375  0.01265898     0.39670
H1008       H  0.16793937  0.00845782  0.70080049     0.44590
H1009       H  0.16117491  0.54858722  0.91649683     0.43310
H1010       H  0.16813298  0.85375806  0.00805516     0.43450
H1011       H  0.18067587  0.81004802  0.77008982     0.43810
C1012       C  0.17788374  0.67391151  0.86149591    -0.02260
C1013       C  0.17728662  0.93006497  0.35262377    -0.02260
C1014       C  0.43215624  0.67756796  0.35333175    -0.02260
O1015       O  0.49044118  0.61555722  0.67047956    -0.75060
O1016       O  0.01503535  0.59184158  0.72811021    -0.53970
C1017       C  0.99507989  0.60895536  0.71251592     0.78660
O1018       O  0.49022678  0.49191245  0.53860846    -0.59670
O1019       O  0.01764687  0.51479748  0.48300521    -0.52690
C1020       C  0.49712618  0.49729721  0.49712036     0.70680
O1021       O  0.49442371  0.49105514  0.68615562    -0.74220
O1022       O  0.01744583  0.52100090  0.74046154    -0.54790
C1023       C  0.99988011  0.49867542  0.72819473     0.76680
O1024       O  0.50094231  0.61883003  0.52221466    -0.59370
O1025       O  0.02204114  0.58495852  0.46964869    -0.52490
C1026       C  0.00515791  0.60824690  0.48075348     0.73270
Zr1027     Zr  0.01440691  0.60617020  0.60079424     2.54710
O1028       O  0.46647278  0.61950293  0.59120409    -0.79930
O1029       O  0.02534558  0.66533382  0.60593013    -0.93350
Zr1030     Zr  0.00824668  0.50789920  0.60977882     2.64680
O1031       O  0.45916385  0.51541538  0.61668300    -0.98310
O1032       O  0.00556253  0.94740510  0.60890408    -0.80370
O1033       O  0.00969830  0.55881522  0.64934253    -0.83720
O1034       O  0.01092560  0.55520877  0.56126339    -2.18430
O1035       O  0.11102447  0.61241482  0.53650340    -0.67110
O1036       O  0.08579819  0.58607551  0.48070010    -0.51680
C1037       C  0.10539564  0.60514471  0.49478482     0.71660
O1038       O  0.09756779  0.48859413  0.68744892    -0.60020
O1039       O  0.07163951  0.51569786  0.74196632    -0.52000
C1040       C  0.08993735  0.49506194  0.72929285     0.73460
O1041       O  0.10685625  0.48831230  0.52791456    -0.71420
O1042       O  0.08189473  0.51462485  0.47297743    -0.50090
C1043       C  0.10148437  0.49554896  0.48534781     0.74840
O1044       O  0.10970465  0.60916986  0.68607314    -0.66750
O1045       O  0.08238071  0.58744591  0.74158107    -0.53940
C1046       C  0.10354895  0.60423959  0.72844789     0.73220
Zr1047     Zr  0.09297267  0.59858132  0.60957368     2.77540
O1048       O  0.14259693  0.59716698  0.61232291    -0.97500
O1049       O  0.09216425  0.65921971  0.61273350    -0.78320
Zr1050     Zr  0.08794521  0.50006482  0.60670032     2.70070
O1051       O  0.13681323  0.49139076  0.61248950    -0.79560
O1052       O  0.08013784  0.94010381  0.60417656    -0.98650
Zr1053     Zr  0.04899990  0.55535377  0.69585295     2.21500
Zr1054     Zr  0.05178403  0.55092083  0.51743965     2.11130
O1055       O  0.09157301  0.54925720  0.56400650    -2.47330
O1056       O  0.09028075  0.54952960  0.65282706    -0.79360
O1057       O  0.05522262  0.60232381  0.55875320    -0.71550
O1058       O  0.04795862  0.50428224  0.65300845    -2.32510
O1059       O  0.05230026  0.60513399  0.65185279    -2.28720
O1060       O  0.04785055  0.50154143  0.56225252    -0.73310
H1061       H  0.49500711  0.55600847  0.54191948     0.78690
H1062       H  0.04644606  0.98515702  0.67282195     0.79770
H1063       H  0.10797582  0.54845891  0.54549181     0.82000
H1064       H  0.05295843  0.62470796  0.67151683     0.79600
H1065       H  0.02156959  0.94016466  0.62672993     0.42640
H1066       H  0.07252496  0.93565086  0.57312303     0.41610
H1067       H  0.14464558  0.51415916  0.61430656     0.41290
H1068       H  0.14813468  0.58150657  0.58739848     0.39220
H1069       H  0.08373479  0.66587289  0.58328815     0.42350
H1070       H  0.02322605  0.67097033  0.63910224     0.37140
H1071       H  0.45715120  0.59756233  0.58972090     0.43250
H1072       H  0.45420093  0.52944799  0.59015129     0.39670
H1073       H  0.14872114  0.61935232  0.60161611     0.44590
H1074       H  0.50984084  0.67646186  0.59092043     0.43310
H1075       H  0.45125070  0.49323787  0.60939174     0.43450
H1076       H  0.09861565  0.93036869  0.60297450     0.43810
O1077       O  0.49291161  0.85848505  0.02358278    -0.75060
O1078       O  0.01641281  0.82917465  0.96895319    -0.53970
C1079       C  0.99733253  0.84900012  0.98169371     0.78660
O1080       O  0.11257069  0.86361815  0.17368666    -0.59670
O1081       O  0.08834851  0.83992379  0.23212647    -0.52690
C1082       C  0.10856667  0.85729032  0.21703640     0.70680
O1083       O  0.09660695  0.86629873  0.01468718    -0.74220
O1084       O  0.06989747  0.83813648  0.96271680    -0.54790
C1085       C  0.08813952  0.85949601  0.97347588     0.76680
O1086       O  0.49318854  0.85605582  0.17371693    -0.59370
O1087       O  0.02281130  0.84021865  0.22971327    -0.52490
C1088       C  0.00056711  0.85308381  0.21541268     0.73270
Zr1089     Zr  0.01282795  0.85164489  0.09990345     2.54710
O1090       O  0.02230681  0.91114595  0.10047382    -0.79930
O1091       O  0.46512558  0.86815050  0.10466744    -0.93350
Zr1092     Zr  0.09181196  0.85395713  0.09677506     2.64680
O1093       O  0.08958443  0.91454134  0.10028877    -0.98310
O1094       O  0.14086758  0.85817983  0.08635819    -0.80370
O1095       O  0.05133758  0.85146221  0.05253888    -0.83720
O1096       O  0.05309601  0.85561694  0.14523013    -2.18430
O1097       O  0.49897230  0.74358455  0.19077677    -0.67110
O1098       O  0.02587505  0.77301092  0.24072134    -0.51680
C1099       C  0.00612466  0.75272330  0.23156092     0.71660
O1100       O  0.10770534  0.74111701  0.02100519    -0.60020
O1101       O  0.08199164  0.76642709  0.96684304    -0.52000
C1102       C  0.10214543  0.74813850  0.97914422     0.73460
O1103       O  0.11364933  0.74588530  0.16887764    -0.71420
O1104       O  0.08939370  0.77161552  0.22635269    -0.50090
C1105       C  0.10875381  0.75302414  0.21092075     0.74840
O1106       O  0.49293521  0.73686680  0.04111965    -0.66750
O1107       O  0.01706141  0.76058910  0.98205480    -0.53940
C1108       C  0.99768635  0.74272351  0.99870650     0.73220
Zr1109     Zr  0.01327749  0.75292815  0.11151436     2.77540
O1110       O  0.01758517  0.69261153  0.11485341    -0.97500
O1111       O  0.46388503  0.75078204  0.11933224    -0.78320
Zr1112     Zr  0.09242236  0.75497703  0.09752518     2.70070
O1113       O  0.08761551  0.69468980  0.10207754    -0.79560
O1114       O  0.14166689  0.75058892  0.08762779    -0.98650
Zr1115     Zr  0.04944564  0.79900122  0.01325554     2.21500
Zr1116     Zr  0.05556417  0.80597687  0.19037847     2.11130
O1117       O  0.05513127  0.75399913  0.15032431    -2.47330
O1118       O  0.05067838  0.74998462  0.05854337    -0.79360
O1119       O  0.01415401  0.80464069  0.14903476    -0.71550
O1120       O  0.09166904  0.80357696  0.05293319    -2.32510
O1121       O  0.01041455  0.79985309  0.06226698    -2.28720
O1122       O  0.09419874  0.80526713  0.14091188    -0.73310
H1123       H  0.05310738  0.87536717  0.16458192     0.78690
H1124       H  0.10696925  0.80407764  0.03181105     0.79770
H1125       H  0.05637220  0.73547399  0.17121844     0.82000
H1126       H  0.49350209  0.79891447  0.04550044     0.79600
H1127       H  0.14747974  0.83521135  0.09095739     0.42640
H1128       H  0.14957109  0.76774098  0.10849648     0.41610
H1129       H  0.07527157  0.68857207  0.07640629     0.41290
H1130       H  0.02502038  0.68816954  0.14586612     0.39220
H1131       H  0.45835775  0.77444466  0.12111358     0.42350
H1132       H  0.45495907  0.85092317  0.08697937     0.37140
H1133       H  0.01270173  0.91941179  0.07294543     0.43250
H1134       H  0.08545682  0.91994524  0.13301589     0.39670
H1135       H  0.49856969  0.68426290  0.11631974     0.44590
H1136       H  0.46370595  0.88865743  0.08615487     0.43310
H1137       H  0.10866698  0.92205369  0.09577830     0.43450
H1138       H  0.14666926  0.72901290  0.10138354     0.43810
O1139       O  0.35509551  0.99653238  0.00627115    -0.75060
O1140       O  0.38872429  0.52276575  0.04652597    -0.53970
C1141       C  0.37986586  0.50543390  0.01142196     0.78660
O1142       O  0.26316825  0.60534726  0.00596810    -0.59670
O1143       O  0.22735677  0.57967897  0.04109755    -0.52690
C1144       C  0.23766642  0.59864900  0.00904748     0.70680
O1145       O  0.35041732  0.57997215  0.00767597    -0.74220
O1146       O  0.38380147  0.59150661  0.05692855    -0.54790
C1147       C  0.37272073  0.59475558  0.01742427     0.76680
O1148       O  0.27240785  0.98168023  0.00100697    -0.59370
O1149       O  0.23624839  0.50761574  0.03630469    -0.52490
C1150       C  0.24747827  0.48916381  0.00390845     0.73270
Zr1151     Zr  0.31102228  0.50042415  0.03992478     2.54710
O1152       O  0.31029820  0.49764162  0.95598497    -0.79930
O1153       O  0.31793263  0.94087744  0.04668459    -0.93350
Zr1154     Zr  0.30750046  0.59805885  0.03955392     2.64680
O1155       O  0.31251243  0.62073392  0.96237603    -0.98310
O1156       O  0.31494719  0.65722433  0.05351700    -0.80370
O1157       O  0.33505383  0.55042369  0.04155184    -0.83720
O1158       O  0.28239673  0.54774535  0.03694873    -2.18430
O1159       O  0.26305720  0.99137023  0.20473870    -0.67110
O1160       O  0.22759159  0.51285337  0.16500531    -0.51680
C1161       C  0.23759246  0.49675210  0.20017897     0.71660
O1162       O  0.34615593  0.60793390  0.21181536    -0.60020
O1163       O  0.38262923  0.58666258  0.17260109    -0.52000
C1164       C  0.37177986  0.60271976  0.20726044     0.73460
O1165       O  0.25885699  0.60780885  0.19649916    -0.71420
O1166       O  0.22541545  0.58171814  0.15448113    -0.50090
C1167       C  0.23404874  0.60031586  0.18819535     0.74840
O1168       O  0.35054824  0.99553400  0.20159104    -0.66750
O1169       O  0.38632860  0.51622241  0.15970937    -0.53940
C1170       C  0.37586559  0.50035049  0.19377646     0.73220
Zr1171     Zr  0.30646510  0.50113007  0.16918226     2.77540
O1172       O  0.31118939  0.48361864  0.24913167    -0.97500
O1173       O  0.30419634  0.94310207  0.14603371    -0.78320
Zr1174     Zr  0.30435111  0.59927755  0.16998717     2.70070
O1175       O  0.29959608  0.61036073  0.25239270    -0.79560
O1176       O  0.30492576  0.65891354  0.15545368    -0.98650
Zr1177     Zr  0.36243820  0.55271527  0.10878598     2.21500
Zr1178     Zr  0.25130526  0.54565609  0.10089551     2.11130
O1179       O  0.27926072  0.54900824  0.16862345    -2.47330
O1180       O  0.33162623  0.55139884  0.17269830    -0.79360
O1181       O  0.27958979  0.49696431  0.10221357    -0.71550
O1182       O  0.33458048  0.60219865  0.10685524    -2.32510
O1183       O  0.33757426  0.50101345  0.10698217    -2.28720
O1184       O  0.27700352  0.59733121  0.10288524    -0.73310
H1185       H  0.27308813  0.54673102  0.00775227     0.78690
H1186       H  0.34551176  0.62229538  0.10788701     0.79770
H1187       H  0.26849080  0.54933806  0.19652450     0.82000
H1188       H  0.34976268  0.98227148  0.10798470     0.79600
H1189       H  0.32946176  0.66316354  0.03113312     0.42640
H1190       H  0.28641434  0.66379279  0.14404726     0.41610
H1191       H  0.29880881  0.58799141  0.26647567     0.41290
H1192       H  0.29851275  0.49755185  0.26761859     0.39220
H1193       H  0.28490115  0.93690974  0.15159413     0.42350
H1194       H  0.33426394  0.93822451  0.06607974     0.37140
H1195       H  0.30847428  0.52110986  0.94630564     0.43250
H1196       H  0.30138326  0.60586400  0.94244808     0.39670
H1197       H  0.30356669  0.96075054  0.25023946     0.44590
H1198       H  0.32426593  0.93420420  0.01543283     0.43310
H1199       H  0.30277944  0.64224093  0.96297090     0.43450
H1200       H  0.30549726  0.66935111  0.18656279     0.43810
C1201       C  0.30164417  0.80666774  0.09987136    -0.02260
C1202       C  0.04660813  0.79902024  0.60699153    -0.02260
O1203       O  0.12233531  0.73692723  0.43400691    -0.75060
O1204       O  0.14605208  0.70944796  0.48849586    -0.53970
C1205       C  0.12704706  0.73008704  0.47643727     0.78660
O1206       O  0.11739188  0.61341816  0.26886385    -0.59670
O1207       O  0.14185157  0.64116143  0.21405247    -0.52690
C1208       C  0.12267935  0.62084257  0.22657287     0.70680
O1209       O  0.11689120  0.61358588  0.41913967    -0.74220
O1210       O  0.14325734  0.63781689  0.47537530    -0.54790
C1211       C  0.12306366  0.61983073  0.46096051     0.76680
O1212       O  0.12171524  0.74430655  0.28559841    -0.59370
O1213       O  0.14340121  0.71585132  0.22731336    -0.52490
C1214       C  0.12606261  0.73708552  0.24333875     0.73270
Zr1215     Zr  0.13860753  0.72475013  0.35625321     2.54710
O1216       O  0.08904393  0.72663928  0.35829728    -0.79930
O1217       O  0.14467183  0.78497908  0.36127676    -0.93350
Zr1218     Zr  0.13504841  0.62672863  0.34587920     2.64680
O1219       O  0.08538067  0.62620032  0.34825906    -0.98310
O1220       O  0.13898566  0.56625215  0.34370995    -0.80370
O1221       O  0.13705065  0.67429730  0.39579578    -0.83720
O1222       O  0.13512392  0.67734674  0.30617694    -2.18430
O1223       O  0.23141584  0.73766235  0.26868007    -0.67110
O1224       O  0.20736044  0.71008028  0.21310118    -0.51680
C1225       C  0.22597645  0.73116640  0.22604787     0.71660
O1226       O  0.23158457  0.60742170  0.42469671    -0.60020
O1227       O  0.20971371  0.63723912  0.48136723    -0.52000
C1228       C  0.22763362  0.61561973  0.46776031     0.73460
O1229       O  0.22267505  0.60763603  0.26518581    -0.71420
O1230       O  0.19847598  0.63576197  0.21075214    -0.50090
C1231       C  0.21600033  0.61418654  0.22309781     0.74840
O1232       O  0.23718013  0.73414622  0.42019642    -0.66750
O1233       O  0.21188616  0.70911045  0.47695593    -0.53940
C1234       C  0.23159930  0.72790071  0.46244995     0.73220
Zr1235     Zr  0.21796434  0.72094751  0.34642496     2.77540
O1236       O  0.26753161  0.71886069  0.34221784    -0.97500
O1237       O  0.21631206  0.78152327  0.34981782    -0.78320
Zr1238     Zr  0.21444698  0.62249824  0.34658837     2.70070
O1239       O  0.26386884  0.62077930  0.33994943    -0.79560
O1240       O  0.21043084  0.56200770  0.34812931    -0.98650
Zr1241     Zr  0.17751584  0.67350832  0.44043914     2.21500
Zr1242     Zr  0.17470580  0.67558933  0.25812903     2.11130
O1243       O  0.21608425  0.67179794  0.30124149    -2.47330
O1244       O  0.21685176  0.67184040  0.39149499    -0.79360
O1245       O  0.17690460  0.72470876  0.30517596    -0.71550
O1246       O  0.17472940  0.62387582  0.39312965    -2.32510
O1247       O  0.17963667  0.72383965  0.39748424    -2.28720
O1248       O  0.17461192  0.62474087  0.30035956    -0.73310
H1249       H  0.11864482  0.67846577  0.28823939     0.78690
H1250       H  0.17403252  0.60425477  0.41214943     0.79770
H1251       H  0.23167918  0.67103734  0.28074354     0.82000
H1252       H  0.18088550  0.74307728  0.41768690     0.79600
H1253       H  0.14343933  0.55990102  0.37571801     0.42640
H1254       H  0.19691703  0.55644783  0.32396285     0.41610
H1255       H  0.27011538  0.64224002  0.35345842     0.41290
H1256       H  0.27164822  0.70467901  0.31491661     0.39220
H1257       H  0.20215687  0.78761942  0.32727356     0.42350
H1258       H  0.15111583  0.78944875  0.39307527     0.37140
H1259       H  0.08336478  0.70379239  0.36684040     0.43250
H1260       H  0.07973238  0.64237883  0.32464880     0.39670
H1261       H  0.27321854  0.74156995  0.33302123     0.44590
H1262       H  0.12591603  0.79390373  0.36094790     0.43310
H1263       H  0.07996759  0.60416623  0.33552052     0.43450
H1264       H  0.22796831  0.55390101  0.33536232     0.43810
O1265       O  0.35877739  0.73671738  0.67407774    -0.75060
O1266       O  0.33618345  0.76439304  0.73202413    -0.53970
C1267       C  0.35432286  0.74418380  0.71631173     0.78660
O1268       O  0.35935596  0.86631023  0.53723069    -0.59670
O1269       O  0.33399415  0.84003961  0.48131177    -0.52690
C1270       C  0.35330049  0.85968411  0.49540927     0.70680
O1271       O  0.35854217  0.86801350  0.68771922    -0.74220
O1272       O  0.33646981  0.83716122  0.74213739    -0.54790
C1273       C  0.35372249  0.85999563  0.72999065     0.76680
O1274       O  0.35466021  0.73785498  0.52382723    -0.59370
O1275       O  0.33227053  0.76651488  0.46891914    -0.52490
C1276       C  0.35059289  0.74514688  0.48127929     0.73270
Zr1277     Zr  0.33951147  0.75103075  0.60221535     2.54710
O1278       O  0.38870177  0.74426873  0.59700384    -0.79930
O1279       O  0.33163756  0.69103507  0.60056909    -0.93350
Zr1280     Zr  0.34412058  0.84890566  0.61080614     2.64680
O1281       O  0.39330230  0.84122852  0.61260096    -0.98310
O1282       O  0.34582158  0.90936567  0.61455310    -0.80370
O1283       O  0.34343682  0.79877688  0.65161926    -0.83720
O1284       O  0.34178327  0.80105603  0.56143569    -2.18430
O1285       O  0.24351444  0.73793909  0.53885547    -0.67110
O1286       O  0.26776541  0.76433080  0.48189410    -0.51680
C1287       C  0.24890620  0.74431574  0.49654913     0.71660
O1288       O  0.25563195  0.86928546  0.69071732    -0.60020
O1289       O  0.28049396  0.84274723  0.74576100    -0.52000
C1290       C  0.26274939  0.86389901  0.73290089     0.73460
O1291       O  0.24707333  0.86759293  0.53177667    -0.71420
O1292       O  0.26849767  0.83795163  0.47470983    -0.50090
C1293       C  0.25062058  0.85959059  0.48859559     0.74840
O1294       O  0.24674888  0.73839523  0.69076121    -0.66750
O1295       O  0.27122576  0.76777974  0.74430691    -0.53940
C1296       C  0.25272115  0.74612961  0.73280534     0.73220
Zr1297     Zr  0.26018067  0.75560377  0.61285768     2.77540
O1298       O  0.21093645  0.76246192  0.61714783    -0.97500
O1299       O  0.25813955  0.69512913  0.61570217    -0.78320
Zr1300     Zr  0.26430392  0.85378633  0.60992569     2.70070
O1301       O  0.21489283  0.85647060  0.61604852    -0.79560
O1302       O  0.26856454  0.91424327  0.60817321    -0.98650
Zr1303     Zr  0.30383951  0.80199274  0.69915617     2.21500
Zr1304     Zr  0.30097225  0.80232249  0.51699177     2.11130
O1305       O  0.26147779  0.80405336  0.56614631    -2.47330
O1306       O  0.26227827  0.80532155  0.65690167    -0.79360
O1307       O  0.29838692  0.75232373  0.56122375    -0.71550
O1308       O  0.30438845  0.85189762  0.65520230    -2.32510
O1309       O  0.30140519  0.75210913  0.65356580    -2.28720
O1310       O  0.30422920  0.85200520  0.56385528    -0.73310
H1311       H  0.35772821  0.80059046  0.54174751     0.78690
H1312       H  0.30572785  0.87148902  0.67468637     0.79770
H1313       H  0.24508801  0.80448388  0.54791613     0.82000
H1314       H  0.30129867  0.73262694  0.67287127     0.79600
H1315       H  0.32678851  0.91615622  0.62079313     0.42640
H1316       H  0.27741499  0.91905254  0.57812579     0.41610
H1317       H  0.20960401  0.83572677  0.63209126     0.41290
H1318       H  0.20612605  0.77498560  0.58911574     0.39220
H1319       H  0.27689019  0.68818367  0.62319037     0.42350
H1320       H  0.33012472  0.68458215  0.63340042     0.37140
H1321       H  0.39627269  0.76591071  0.60769221     0.43250
H1322       H  0.39781942  0.82951498  0.58331760     0.39670
H1323       H  0.20343284  0.73981339  0.61169177     0.44590
H1324       H  0.34921365  0.68153277  0.59008106     0.43310
H1325       H  0.40099195  0.86390916  0.60880762     0.43450
H1326       H  0.24965442  0.92225916  0.60477228     0.43810
C1327       C  0.30198809  0.54898066  0.60340755    -0.02260
C1328       C  0.04932930  0.54871889  0.09639310    -0.02260
C1329       C  0.11593991  0.58505807  0.15503615    -0.21080
C1330       C  0.10491375  0.60478522  0.19073445    -0.09120
C1331       C  0.07641358  0.60624287  0.19494174     0.29740
C1332       C  0.05948443  0.58903364  0.16376822    -0.21080
C1333       C  0.07005557  0.56898560  0.12734631    -0.09130
C1334       C  0.09902719  0.56664417  0.12465497     0.29740
F1335       F  0.11155829  0.54528153  0.09503790    -0.19660
H1336       H  0.13784246  0.58242838  0.15218187     0.18110
H1337       H  0.03766306  0.59121773  0.16836747     0.18120
F1338       F  0.06479172  0.62440308  0.22952187    -0.19640
C1339       C  0.27414594  0.60151715  0.57357694    -0.21080
C1340       C  0.28013416  0.56693545  0.57128558    -0.09120
C1341       C  0.26792972  0.54921988  0.53343471     0.29740
C1342       C  0.25126049  0.56498875  0.50073457    -0.21080
C1343       C  0.24513629  0.59903023  0.50399434    -0.09130
C1344       C  0.25668571  0.61698874  0.54130218     0.29740
F1345       F  0.25223203  0.65017693  0.54516570    -0.19660
H1346       H  0.28333988  0.61733949  0.59950671     0.18110
H1347       H  0.24287474  0.55022043  0.47265356     0.18120
F1348       F  0.27223742  0.51605726  0.52766317    -0.19640
C1349       C  0.10892696  0.74251509  0.55955642    -0.21080
C1350       C  0.10845597  0.74781636  0.51152797    -0.09120
C1351       C  0.08980801  0.77200263  0.49632842     0.29740
C1352       C  0.07165223  0.78803129  0.52670150    -0.21080
C1353       C  0.06931494  0.78061191  0.57456442    -0.09130
C1354       C  0.09073787  0.75941552  0.59051296     0.29740
F1355       F  0.09734892  0.75843937  0.63568269    -0.19660
H1356       H  0.12421713  0.72625048  0.57365397     0.18110
H1357       H  0.06019421  0.80771613  0.51118624     0.18120
F1358       F  0.08922795  0.78151860  0.45147350    -0.19640
C1359       C  0.26786326  0.75638848  0.11805185    -0.21080
C1360       C  0.28056320  0.78692954  0.13230212    -0.09120
C1361       C  0.27224510  0.79872040  0.17689977     0.29740
C1362       C  0.25418867  0.78078253  0.20494307    -0.21080
C1363       C  0.24281538  0.75020581  0.19123492    -0.09130
C1364       C  0.24955389  0.73835567  0.14674188     0.29740
F1365       F  0.23941067  0.70874019  0.13148245    -0.19660
H1366       H  0.27279038  0.74545977  0.08476599     0.18110
H1367       H  0.24918186  0.79122459  0.23858133     0.18120
F1368       F  0.28099766  0.82767081  0.19558365    -0.19640
C1369       C  0.42997953  0.64413725  0.27402266    -0.21080
C1370       C  0.41743372  0.65390695  0.31673473    -0.09120
C1371       C  0.39076727  0.64094195  0.32412128     0.29740
C1372       C  0.37677232  0.62374287  0.28894495    -0.21080
C1373       C  0.38884923  0.61700596  0.24554650    -0.09130
C1374       C  0.41613106  0.62611507  0.23943453     0.29740
F1375       F  0.42928738  0.61894556  0.19920532    -0.19660
H1376       H  0.45052957  0.65045216  0.26522921     0.18110
H1377       H  0.35604827  0.61570525  0.29590005     0.18120
F1378       F  0.37774675  0.64441001  0.36530894    -0.19640
C1379       C  0.47810310  0.68758826  0.31064723    -0.21080
C1380       C  0.45278716  0.70116843  0.32636545    -0.09120
C1381       C  0.44893134  0.73540949  0.31684919     0.29740
C1382       C  0.46711679  0.75282590  0.28768571    -0.21080
C1383       C  0.49049868  0.73753974  0.26966739    -0.09130
C1384       C  0.99617478  0.70501612  0.28237097     0.29740
F1385       F  0.01851033  0.68927831  0.26515672    -0.19660
H1386       H  0.48346868  0.66208120  0.31794645     0.18110
H1387       H  0.46256324  0.77812636  0.27792436     0.18120
F1388       F  0.42810752  0.75273629  0.33528940    -0.19640
C1389       C  0.45363697  0.62235659  0.38502041    -0.21080
C1390       C  0.45134406  0.65750165  0.38581359    -0.09120
C1391       C  0.46869931  0.67548454  0.41650751     0.29740
C1392       C  0.48678607  0.65917510  0.44530673    -0.21080
C1393       C  0.48879120  0.62446732  0.44457964    -0.09130
C1394       C  0.47214509  0.60608743  0.41410667     0.29740
F1395       F  0.97266587  0.57233821  0.41450749    -0.19660
H1396       H  0.44101498  0.60723233  0.36252582     0.18110
H1397       H  0.49903555  0.67383556  0.46909614     0.18120
F1398       F  0.46758433  0.70924235  0.41947974    -0.19640
C1399       C  0.40786076  0.68950353  0.43327318    -0.21080
C1400       C  0.40979663  0.69613276  0.38523576    -0.09120
C1401       C  0.38825055  0.71630234  0.36807510     0.29740
C1402       C  0.36923976  0.73262879  0.39825406    -0.21080
C1403       C  0.36942925  0.72753891  0.44652769    -0.09130
C1404       C  0.38874168  0.70448878  0.46268717     0.29740
F1405       F  0.38932051  0.69534801  0.50769501    -0.19660
H1406       H  0.42053934  0.67136649  0.44969142     0.18110
H1407       H  0.35411235  0.74885036  0.38360273     0.18120
F1408       F  0.38514415  0.71983621  0.32183764    -0.19640
C1409       C  0.16808196  0.90559707  0.26918970    -0.21080
C1410       C  0.16288179  0.90476532  0.31763736    -0.09120
C1411       C  0.14397389  0.87996316  0.33179216     0.29740
C1412       C  0.12634156  0.86444868  0.29940830    -0.21080
C1413       C  0.12862725  0.87096202  0.25160528    -0.09130
C1414       C  0.15104518  0.89008311  0.23707841     0.29740
F1415       F  0.15661897  0.89449523  0.19155062    -0.19660
H1416       H  0.18518123  0.91882351  0.25454597     0.18110
H1417       H  0.11055234  0.84784004  0.31198326     0.18120
F1418       F  0.14081856  0.87291161  0.37727015    -0.19640
C1419       C  0.23494932  0.96352278  0.27340374    -0.21080
C1420       C  0.22107190  0.98334547  0.24090778    -0.09120
C1421       C  0.19379113  0.99110684  0.25160691     0.29740
C1422       C  0.18081390  0.97730796  0.29129377    -0.21080
C1423       C  0.19441709  0.95487043  0.32150275    -0.09130
C1424       C  0.22248390  0.95032822  0.31277820     0.29740
F1425       F  0.23836487  0.93180676  0.34048279    -0.19660
H1426       H  0.25612942  0.95721340  0.26838613     0.18110
H1427       H  0.15926523  0.98184587  0.29616024     0.18120
F1428       F  0.17940699  0.01112481  0.22342074    -0.19640
C1429       C  0.12705840  0.94380682  0.38268823    -0.21080
C1430       C  0.15538950  0.95160638  0.38069219    -0.09120
C1431       C  0.16320588  0.98035915  0.40679067     0.29740
C1432       C  0.14598303  0.99391704  0.44129195    -0.21080
C1433       C  0.11940758  0.98167419  0.44794101    -0.09130
C1434       C  0.10960238  0.95800446  0.41618510     0.29740
F1435       F  0.08313232  0.94803960  0.41802268    -0.19660
H1436       H  0.11754030  0.92685134  0.35882304     0.18110
H1437       H  0.15346938  0.51414730  0.46286824     0.18120
F1438       F  0.18841737  0.99402802  0.40152773    -0.19640
C1439       C  0.20220926  0.92279652  0.43333758    -0.21080
C1440       C  0.19595384  0.90998411  0.38852018    -0.09120
C1441       C  0.20906040  0.87907825  0.37754604     0.29740
C1442       C  0.22681539  0.86307725  0.40917491    -0.21080
C1443       C  0.23248893  0.87668550  0.45333449    -0.09130
C1444       C  0.21977594  0.90702717  0.46436107     0.29740
F1445       F  0.22469603  0.92244204  0.50546518    -0.19660
H1446       H  0.19393504  0.94542232  0.44660730     0.18110
H1447       H  0.23613722  0.83976488  0.39891458     0.18120
F1448       F  0.20581813  0.86454011  0.33546149    -0.19640
C1449       C  0.11918774  0.61582691  0.81040281    -0.21080
C1450       C  0.12263287  0.61964266  0.76278760    -0.09120
C1451       C  0.14411547  0.64027323  0.74763619     0.29740
C1452       C  0.16112405  0.65649995  0.77883748    -0.21080
C1453       C  0.15927174  0.65216642  0.82738349    -0.09130
C1454       C  0.13648682  0.63223349  0.84210181     0.29740
F1455       F  0.12733885  0.63260931  0.88602503    -0.19660
H1456       H  0.10205010  0.60152634  0.82344874     0.18110
H1457       H  0.17433992  0.67455739  0.76298938     0.18120
F1458       F  0.14827416  0.64668988  0.70214517    -0.19640
C1459       C  0.13253364  0.70679262  0.87238017    -0.21080
C1460       C  0.15879353  0.69798130  0.88873761    -0.09120
C1461       C  0.16714799  0.71247924  0.93104299     0.29740
C1462       C  0.14874053  0.72998031  0.95857861    -0.21080
C1463       C  0.12163943  0.73460318  0.94474542    -0.09130
C1464       C  0.11402186  0.72439743  0.90031568     0.29740
F1465       F  0.08842478  0.72985979  0.88476499    -0.19660
H1466       H  0.12575006  0.69935717  0.83834620     0.18110
H1467       H  0.15568956  0.73944080  0.99166866     0.18120
F1468       F  0.19312218  0.70975994  0.94623577    -0.19640
C1469       C  0.17925439  0.63305143  0.93360298    -0.21080
C1470       C  0.19342727  0.65129500  0.89842651    -0.09120
C1471       C  0.22225596  0.65230865  0.90445178     0.29740
C1472       C  0.23520559  0.63367769  0.93809800    -0.21080
C1473       C  0.22105512  0.61487207  0.97145290    -0.09130
C1474       C  0.19256047  0.61480871  0.96859816     0.29740
F1475       F  0.17736917  0.59880581  0.00091117    -0.19660
H1476       H  0.15783651  0.63553559  0.93850400     0.18110
H1477       H  0.25710940  0.63607608  0.93918054     0.18120
F1478       F  0.23880835  0.67457635  0.88327849    -0.19640
C1479       C  0.21964072  0.74659084  0.79999489    -0.21080
C1480       C  0.23660917  0.72870206  0.76966938    -0.09120
C1481       C  0.23553533  0.69376277  0.77120149     0.29740
C1482       C  0.21783170  0.67729855  0.80198075    -0.21080
C1483       C  0.19931315  0.69475444  0.83147965    -0.09130
C1484       C  0.20099766  0.73032804  0.82970904     0.29740
F1485       F  0.18438503  0.75024912  0.85507184    -0.19660
H1486       H  0.21988831  0.77354767  0.79912620     0.18110
H1487       H  0.21772001  0.65030884  0.80175711     0.18120
F1488       F  0.25149065  0.67535330  0.74238097    -0.19640
C1489       C  0.08784756  0.83347243  0.63752752    -0.21080
C1490       C  0.06106094  0.82159575  0.64458581    -0.09120
C1491       C  0.04817502  0.83179938  0.68686074     0.29740
C1492       C  0.06267788  0.84910470  0.72185277    -0.21080
C1493       C  0.09017497  0.85786561  0.71575472    -0.09130
C1494       C  0.10208322  0.85093617  0.67203477     0.29740
F1495       F  0.12781689  0.86122919  0.66201414    -0.19660
H1496       H  0.09825883  0.82921421  0.60500502     0.18110
H1497       H  0.05246529  0.85501317  0.75413945     0.18120
F1498       F  0.02142680  0.82540966  0.69487260    -0.19640
C1499       C  0.07704659  0.54677972  0.02173518    -0.21080
C1500       C  0.06314995  0.52827000  0.05604054    -0.09120
C1501       C  0.05783389  0.99404826  0.04523370     0.29740
C1502       C  0.06760461  0.97933462  0.00388752    -0.21080
C1503       C  0.08186479  0.99819989  0.97107866    -0.09130
C1504       C  0.08580525  0.53236461  0.98021667     0.29740
F1505       F  0.09957601  0.55168777  0.94956536    -0.19660
H1506       H  0.08065837  0.57320238  0.02691905     0.18110
H1507       H  0.06481983  0.95280428  0.99830141     0.18120
F1508       F  0.04222650  0.97463557  0.07272271    -0.19640
C1509       C  0.28147441  0.87400897  0.00596728    -0.21080
C1510       C  0.25969906  0.85830047  0.98351182    -0.09120
C1511       C  0.25143790  0.82686265  0.99996212     0.29740
C1512       C  0.26384243  0.81233112  0.03815929    -0.21080
C1513       C  0.28536832  0.82783108  0.06274339    -0.09130
C1514       C  0.29440131  0.85913206  0.04413469     0.29740
F1515       F  0.31750953  0.87420423  0.05906883    -0.19660
H1516       H  0.28850865  0.89795478  0.99381933     0.18110
H1517       H  0.25645770  0.78804425  0.04699236     0.18120
F1518       F  0.23117802  0.80951786  0.97860626    -0.19640
C1519       C  0.24800371  0.99986199  0.67808676    -0.21080
C1520       C  0.26223093  0.99132217  0.71859961    -0.09120
C1521       C  0.29056952  0.99708588  0.71773694     0.29740
C1522       C  0.30329993  0.51233937  0.67870736    -0.21080
C1523       C  0.28821157  0.52439166  0.64004392    -0.09130
C1524       C  0.26002027  0.51660426  0.64095122     0.29740
F1525       F  0.24284153  0.52541888  0.60701575    -0.19660
H1526       H  0.22643267  0.99478642  0.67515711     0.18110
H1527       H  0.32505989  0.51670927  0.68017172     0.18120
F1528       F  0.30584961  0.98940170  0.75495221    -0.19640
C1529       C  0.36376765  0.59151576  0.66750552    -0.21400
C1530       C  0.35089668  0.60750445  0.70441668    -0.09120
C1531       C  0.32225400  0.60794016  0.70555041     0.29740
C1532       C  0.30702288  0.59178879  0.67058778    -0.21080
C1533       C  0.31973183  0.57374510  0.63398969    -0.09130
C1534       C  0.34901997  0.57412127  0.63397700     0.29740
F1535       F  0.36459107  0.55533243  0.60524671    -0.19660
H1536       H  0.38583113  0.59038196  0.66629965     0.18110
H1537       H  0.28502700  0.59148325  0.67381131     0.18120
F1538       F  0.30896412  0.62366255  0.74065811    -0.19640
C1539       C  0.50958498  0.55387849  0.04199706    -0.21080
C1540       C  0.02951886  0.57089844  0.06871939    -0.09120
C1541       C  0.03083243  0.60614535  0.06525941     0.29740
C1542       C  0.01204284  0.62305593  0.03784932    -0.21080
C1543       C  0.49251018  0.60534334  0.01224735    -0.09130
C1544       C  0.49145517  0.57069969  0.01447097     0.29740
F1545       F  0.47302276  0.55298301  0.98926680    -0.19660
H1546       H  0.50796865  0.52697952  0.04280070     0.18110
H1547       H  0.01370683  0.64984969  0.03453102     0.18120
F1548       F  0.05096902  0.62440441  0.08513693    -0.19640
C1549       C  0.33628219  0.79863962  0.03477453    -0.21080
C1550       C  0.32065841  0.78342741  0.07011655    -0.09120
C1551       C  0.32824401  0.75022781  0.08171192     0.29740
C1552       C  0.34791405  0.73291432  0.05529979    -0.21080
C1553       C  0.36082431  0.74823080  0.01775330    -0.09130
C1554       C  0.35553208  0.78162756  0.00910058     0.29740
F1555       F  0.36928526  0.79822163  0.97545230    -0.19660
H1556       H  0.33460258  0.82448212  0.02678342     0.18110
H1557       H  0.35315405  0.70770093  0.06433372     0.18120
F1558       F  0.31946315  0.73566571  0.12116753    -0.19640
C1559       C  0.03787813  0.75049165  0.66539144    -0.21080
C1560       C  0.02705004  0.77364884  0.63388725    -0.09120
C1561       C  0.49768923  0.77641629  0.63537998     0.29740
C1562       C  0.48143193  0.75606885  0.66337370    -0.21080
C1563       C  0.49297477  0.73461371  0.69493546    -0.09130
C1564       C  0.02141563  0.73183049  0.69560010     0.29740
F1565       F  0.03350927  0.71200931  0.72705295    -0.19660
H1566       H  0.05918865  0.74849995  0.67080533     0.18110
H1567       H  0.45960172  0.76004377  0.66414425     0.18120
F1568       F  0.48387368  0.80193341  0.61645475    -0.19640
C1569       C  0.33452032  0.87683670  0.17800848    -0.21080
C1570       C  0.35909845  0.86219778  0.19094652    -0.09120
C1571       C  0.36498180  0.83019614  0.17504529     0.29740
C1572       C  0.34658855  0.81302613  0.14689443    -0.21080
C1573       C  0.32199787  0.82759531  0.13101728    -0.09130
C1574       C  0.31637108  0.86017918  0.14803951     0.29740
F1575       F  0.29211831  0.87473656  0.13915801    -0.19660
H1576       H  0.32895655  0.90069543  0.19280461     0.18110
H1577       H  0.35201905  0.78774784  0.13869020     0.18120
F1578       F  0.38791085  0.81459679  0.18911054    -0.19640
C1579       C  0.04550577  0.50216255  0.15709259    -0.21080
C1580       C  0.03244586  0.52716185  0.13132738    -0.09120
C1581       C  0.50462929  0.53379080  0.14299288     0.29740
C1582       C  0.49010987  0.51325050  0.17273406    -0.21080
C1583       C  0.50290501  0.98765680  0.19595970    -0.09130
C1584       C  0.03096207  0.98269781  0.18917572     0.29740
F1585       F  0.04422405  0.95914632  0.21348335    -0.19660
H1586       H  0.06704594  0.49761394  0.15194699     0.18110
H1587       H  0.46897046  0.51898551  0.18030136     0.18120
F1588       F  0.49145902  0.56165418  0.12965831    -0.19640
C1589       C  0.00439852  0.87104353  0.54863706    -0.21080
C1590       C  0.48964926  0.85297867  0.51518851    -0.09120
C1591       C  0.49422727  0.81856363  0.51130911     0.29740
C1592       C  0.51268330  0.80270444  0.54016012    -0.21080
C1593       C  0.02777406  0.82021394  0.57453879    -0.09130
C1594       C  0.02335726  0.85524121  0.57771119     0.29740
F1595       F  0.03727175  0.87476796  0.60795952    -0.19660
H1596       H  0.00202820  0.89776624  0.55093751     0.18110
H1597       H  0.51501172  0.77599471  0.53631725     0.18120
F1598       F  0.48068928  0.79995611  0.47932403    -0.19640
C1599       C  0.35133516  0.53489240  0.49975445    -0.21080
C1600       C  0.35868258  0.00144669  0.50349766    -0.09120
C1601       C  0.34665435  0.98243620  0.53891960     0.29740
C1602       C  0.32806663  0.99684197  0.57051979    -0.21080
C1603       C  0.32132830  0.53095618  0.56811975    -0.09130
C1604       C  0.33326949  0.54954692  0.53136406     0.29740
F1605       F  0.32863586  0.58270274  0.52749243    -0.19660
H1606       H  0.36013080  0.55008874  0.47270781     0.18110
H1607       H  0.31924600  0.98113160  0.59682214     0.18120
F1608       F  0.35215747  0.94950259  0.54180180    -0.19640
C1609       C  0.39502466  0.97067850  0.89337390    -0.21080
C1610       C  0.41932153  0.95293993  0.89912257    -0.09120
C1611       C  0.43416993  0.96025740  0.94074580     0.29740
C1612       C  0.42268217  0.97939302  0.97704057    -0.21080
C1613       C  0.39724472  0.99418608  0.97170316    -0.09130
C1614       C  0.38488349  0.49180640  0.92784113     0.29740
F1615       F  0.36163124  0.50863464  0.91900473    -0.19660
H1616       H  0.38295949  0.96817001  0.86276756     0.18110
H1617       H  0.43320470  0.98148973  0.00970343     0.18120
F1618       F  0.45974151  0.94857801  0.94710260    -0.19640
C1619       C  0.46281153  0.97643155  0.83924588    -0.21080
C1620       C  0.44930316  0.94630498  0.82685356    -0.09120
C1621       C  0.45589084  0.93222625  0.78306002     0.29740
C1622       C  0.47237583  0.94935082  0.75186275    -0.21080
C1623       C  0.48442452  0.48002729  0.76377214    -0.09130
C1624       C  0.48063249  0.49252199  0.80865116     0.29740
F1625       F  0.49395609  0.52045754  0.82291054    -0.19660
H1626       H  0.46019830  0.98783106  0.87279968     0.18110
H1627       H  0.47600567  0.93816200  0.71819600     0.18120
F1628       F  0.44684201  0.90146131  0.77035933    -0.19640
C1629       C  0.39893191  0.87654811  0.83466911    -0.21080
C1630       C  0.40576070  0.91103512  0.83168213    -0.09120
C1631       C  0.39296158  0.92850558  0.79503584     0.29740
C1632       C  0.37562283  0.91216730  0.76327842    -0.21080
C1633       C  0.36971891  0.87800189  0.76667056    -0.09130
C1634       C  0.38114575  0.86066372  0.80335116     0.29740
F1635       F  0.37678497  0.82743297  0.80665276    -0.19660
H1636       H  0.40812187  0.86055958  0.85965390     0.18110
H1637       H  0.36730183  0.92625040  0.73501384     0.18120
F1638       F  0.39905258  0.96098095  0.78693910    -0.19640
C1639       C  0.47382703  0.89284338  0.87509677    -0.21080
C1640       C  0.44628097  0.90016501  0.88626880    -0.09120
C1641       C  0.43506110  0.88474372  0.92606756     0.29740
C1642       C  0.45154088  0.86679160  0.95587788    -0.21080
C1643       C  0.47930664  0.86253920  0.94621810    -0.09130
C1644       C  0.99002057  0.87423998  0.90450484     0.29740
F1645       F  0.01681894  0.87028372  0.89397814    -0.19660
H1646       H  0.48391578  0.90279423  0.84505539     0.18110
H1647       H  0.44279468  0.85727173  0.98759949     0.18120
F1648       F  0.40860083  0.88956571  0.93831414    -0.19640
C1649       C  0.92985534  0.42759347  0.86089266    -0.02260
O1650       O  0.98740249  0.48733211  0.42207691    -0.75060
O1651       O  0.95980025  0.46409498  0.47727595    -0.53970
C1652       C  0.98014374  0.48201381  0.46342928     0.78660
O1653       O  0.88520025  0.49349915  0.26993053    -0.59670
O1654       O  0.91004081  0.46435447  0.21616911    -0.52690
C1655       C  0.89250348  0.48615063  0.22839972     0.70680
O1656       O  0.87523563  0.49552192  0.42642296    -0.74220
O1657       O  0.89472354  0.46431397  0.48267927    -0.54790
C1658       C  0.87762086  0.48627729  0.46882544     0.76680
O1659       O  0.99408150  0.47648909  0.27402153    -0.59370
O1660       O  0.96577989  0.45398322  0.21983464    -0.52490
C1661       C  0.98704721  0.47070108  0.23209553     0.73270
Zr1662     Zr  0.97334552  0.46859519  0.34957779     2.54710
O1663       O  0.97684539  0.02856246  0.33941233    -0.79930
O1664       O  0.52250898  0.46114391  0.35412570    -0.93350
Zr1665     Zr  0.89404423  0.48097015  0.34975401     2.64680
O1666       O  0.90216217  0.04090031  0.35247708    -0.98310
O1667       O  0.84528874  0.49028297  0.34278485    -0.80370
O1668       O  0.93326291  0.47665857  0.39575200    -0.83720
O1669       O  0.93443831  0.47499054  0.30481093    -2.18430
O1670       O  0.98598672  0.35944568  0.29019048    -0.67110
O1671       O  0.96278372  0.38444839  0.23196090    -0.51680
C1672       C  0.98183155  0.36623066  0.24806164     0.71660
O1673       O  0.86470230  0.36909382  0.41946855    -0.60020
O1674       O  0.89090029  0.39322123  0.47596321    -0.52000
C1675       C  0.87068553  0.37521214  0.46146128     0.73460
O1676       O  0.86763017  0.37231505  0.26919107    -0.71420
O1677       O  0.89807385  0.39275832  0.21670404    -0.50090
C1678       C  0.87597735  0.37714481  0.22770384     0.74840
O1679       O  0.97758137  0.35990580  0.43767120    -0.66750
O1680       O  0.95561527  0.39275130  0.49023828    -0.53940
C1681       C  0.97299633  0.36979898  0.47925840     0.73220
Zr1682     Zr  0.96267596  0.37146016  0.35979764     2.77540
O1683       O  0.94745512  0.31425011  0.36332582    -0.97500
O1684       O  0.50939534  0.35216979  0.36639711    -0.78320
Zr1685     Zr  0.88407210  0.38288150  0.34693222     2.70070
O1686       O  0.88203547  0.32229230  0.34225929    -0.79560
O1687       O  0.83470305  0.38893365  0.34790408    -0.98650
Zr1688     Zr  0.92633087  0.42783892  0.44131390     2.21500
Zr1689     Zr  0.93121453  0.42372562  0.26326641     2.11130
O1690       O  0.92546108  0.37435566  0.30723832    -2.47330
O1691       O  0.92116372  0.37702382  0.39932332    -0.79360
O1692       O  0.96984034  0.41780134  0.31069533    -0.71550
O1693       O  0.88757603  0.43210195  0.39253247    -2.32510
O1694       O  0.96783161  0.42212601  0.39920887    -2.28720
O1695       O  0.88946812  0.43177837  0.30377660    -0.73310
H1696       H  0.93714051  0.49368655  0.28452237     0.78690
H1697       H  0.87095407  0.43395821  0.41033328     0.79770
H1698       H  0.92442923  0.35494893  0.28731629     0.82000
H1699       H  0.98340206  0.42103266  0.41930925     0.79600
H1700       H  0.83680308  0.46870628  0.35114234     0.42640
H1701       H  0.83083889  0.40530891  0.32350247     0.41610
H1702       H  0.88812708  0.31467291  0.37289760     0.41290
H1703       H  0.93924597  0.31069285  0.33262481     0.39220
H1704       H  0.52036916  0.37283463  0.36986816     0.42350
H1705       H  0.52541781  0.44759138  0.38201086     0.37140
H1706       H  0.95778295  0.03642907  0.33933597     0.43250
H1707       H  0.90657549  0.04703969  0.32024145     0.39670
H1708       H  0.96454883  0.30130539  0.36257306     0.44590
H1709       H  0.52990141  0.48345005  0.36221256     0.43310
H1710       H  0.88396243  0.05064781  0.35828338     0.43450
H1711       H  0.82757335  0.36750090  0.33561916     0.43810
O1712       O  0.98411562  0.23471354  0.92453926    -0.75060
O1713       O  0.95916238  0.21147002  0.98285985    -0.53970
C1714       C  0.97904792  0.22869926  0.96678712     0.78660
O1715       O  0.86688989  0.23634470  0.79125988    -0.59670
O1716       O  0.89001966  0.20860828  0.73401888    -0.52690
C1717       C  0.87154717  0.22857793  0.74919377     0.70680
O1718       O  0.87132928  0.23679816  0.94128997    -0.74220
O1719       O  0.89554025  0.20925754  0.99538022    -0.54790
C1720       C  0.87703274  0.22985810  0.98318085     0.76680
O1721       O  0.98380760  0.22645030  0.77392182    -0.59370
O1722       O  0.95339765  0.20531266  0.72213880    -0.52490
C1723       C  0.97571744  0.22074306  0.73245974     0.73270
Zr1724     Zr  0.96496479  0.22223611  0.85171724     2.54710
O1725       O  0.95750501  0.28201148  0.84636323    -0.79930
O1726       O  0.51380313  0.23319692  0.84530493    -0.93350
Zr1727     Zr  0.88578504  0.22371409  0.86379654     2.64680
O1728       O  0.89263030  0.28361586  0.86852545    -0.98310
O1729       O  0.83653705  0.23025466  0.86719065    -0.80370
O1730       O  0.92725315  0.22561375  0.90377705    -0.83720
O1731       O  0.92360633  0.22396097  0.81181480    -2.18430
O1732       O  0.98181188  0.11528430  0.78712602    -0.67110
O1733       O  0.95532040  0.13792625  0.73115930    -0.51680
C1734       C  0.97602906  0.12156535  0.74544977     0.71660
O1735       O  0.87614488  0.10853067  0.94043273    -0.60020
O1736       O  0.90290158  0.13587955  0.99319841    -0.52000
C1737       C  0.88502709  0.11418744  0.98156106     0.73460
O1738       O  0.86151348  0.11678416  0.78409651    -0.71420
O1739       O  0.88966017  0.13827055  0.72868608    -0.50090
C1740       C  0.86818721  0.12214934  0.74156693     0.74840
O1741       O  0.97895626  0.11148672  0.93611139    -0.66750
O1742       O  0.95906296  0.14442397  0.99102840    -0.53940
C1743       C  0.97580998  0.12179075  0.97786058     0.73220
Zr1744     Zr  0.96164242  0.12317231  0.85998638     2.77540
O1745       O  0.94891992  0.06460957  0.85864881    -0.97500
O1746       O  0.50957203  0.10798074  0.86157425    -0.78320
Zr1747     Zr  0.88247626  0.12526862  0.86073050     2.70070
O1748       O  0.88404778  0.06495321  0.85176912    -0.79560
O1749       O  0.83331906  0.12373471  0.87134174    -0.98650
Zr1750     Zr  0.92626986  0.17582769  0.94750020     2.21500
Zr1751     Zr  0.92231341  0.17253520  0.77028663     2.11130
O1752       O  0.92185774  0.12227323  0.81366187    -2.47330
O1753       O  0.92265306  0.12459104  0.90608317    -0.79360
O1754       O  0.96319048  0.17106071  0.81273204    -0.71550
O1755       O  0.88414033  0.17450773  0.90698170    -2.32510
O1756       O  0.96568454  0.17413530  0.89925904    -2.28720
O1757       O  0.88297013  0.17466163  0.81813690    -0.73310
H1758       H  0.92324849  0.24288205  0.79148228     0.78690
H1759       H  0.86872194  0.17440799  0.92787960     0.79770
H1760       H  0.92133232  0.10289530  0.79361627     0.82000
H1761       H  0.98243216  0.17355758  0.91649908     0.79600
H1762       H  0.82950284  0.20779049  0.87486292     0.42640
H1763       H  0.82631937  0.14116499  0.85068070     0.41610
H1764       H  0.89461483  0.05736643  0.87864659     0.41290
H1765       H  0.95240801  0.05727066  0.82644385     0.39220
H1766       H  0.51943395  0.12956213  0.86343806     0.42350
H1767       H  0.52254331  0.21732757  0.86647140     0.37140
H1768       H  0.96069759  0.29073523  0.87799229     0.43250
H1769       H  0.90565262  0.28711897  0.89410618     0.39670
H1770       H  0.96306752  0.05366412  0.87725650     0.44590
H1771       H  0.51675230  0.25542662  0.85962875     0.43310
H1772       H  0.87512751  0.29211710  0.88091081     0.43450
H1773       H  0.82740906  0.10243438  0.85692585     0.43810
O1774       O  0.70601402  0.48063648  0.97018206    -0.75060
O1775       O  0.74344480  0.46439562  0.92834193    -0.53970
C1776       C  0.73140907  0.47693162  0.96506475     0.78660
O1777       O  0.62980455  0.36797127  0.94514946    -0.59670
O1778       O  0.59478624  0.38964888  0.90363824    -0.52690
C1779       C  0.60472855  0.37310488  0.93744603     0.70680
O1780       O  0.71710047  0.36847495  0.95217110    -0.74220
O1781       O  0.75247562  0.39582112  0.91756033    -0.54790
C1782       C  0.74246226  0.37551684  0.94830152     0.76680
O1783       O  0.62501843  0.49137751  0.94210849    -0.59370
O1784       O  0.59234699  0.45965312  0.90714319    -0.52490
C1785       C  0.60036619  0.48195839  0.93699140     0.73270
Zr1786     Zr  0.67014420  0.47851344  0.91756757     2.54710
O1787       O  0.66205150  0.49419915  0.99796468    -0.79930
O1788       O  0.67707699  0.03747634  0.90201198    -0.93350
Zr1789     Zr  0.67398035  0.38025294  0.91778313     2.64680
O1790       O  0.67515074  0.37640416  0.00147942    -0.98310
O1791       O  0.67399876  0.32000610  0.90695367    -0.80370
O1792       O  0.69793806  0.43070206  0.92003954    -0.83720
O1793       O  0.64575543  0.42800372  0.91765273    -2.18430
O1794       O  0.63162860  0.48757215  0.75836364    -0.67110
O1795       O  0.59598296  0.46239982  0.79583694    -0.51680
C1796       C  0.60645837  0.48083659  0.76418534     0.71660
O1797       O  0.72029095  0.37453001  0.75737500    -0.60020
O1798       O  0.75438728  0.39445574  0.80375007    -0.52000
C1799       C  0.74524306  0.37901976  0.76749970     0.73460
O1800       O  0.63300345  0.36657356  0.74989134    -0.71420
O1801       O  0.59707742  0.39059256  0.78734519    -0.50090
C1802       C  0.60745601  0.37264871  0.75392978     0.74840
O1803       O  0.71974396  0.48359948  0.75379285    -0.66750
O1804       O  0.75490026  0.46411946  0.79610966    -0.53940
C1805       C  0.74522833  0.47868239  0.75946698     0.73220
Zr1806     Zr  0.67563102  0.47760926  0.78872475     2.77540
O1807       O  0.67718332  0.48694663  0.70570808    -0.97500
O1808       O  0.67734508  0.03762370  0.80156368    -0.78320
Zr1809     Zr  0.67567246  0.37959156  0.78757230     2.70070
O1810       O  0.67940435  0.37015186  0.70471356    -0.79560
O1811       O  0.67738501  0.31992633  0.80107894    -0.98650
Zr1812     Zr  0.72972782  0.43122432  0.85815261     2.21500
Zr1813     Zr  0.61862651  0.42595513  0.84940246     2.11130
O1814       O  0.64926704  0.42795110  0.78477439    -2.47330
O1815       O  0.70184715  0.42914442  0.79092375    -0.79360
O1816       O  0.64381880  0.47765206  0.85044939    -0.71550
O1817       O  0.70363739  0.38009060  0.85400618    -2.32510
O1818       O  0.70235630  0.48097497  0.85614538    -2.28720
O1819       O  0.64612066  0.37671766  0.85148161    -0.73310
H1820       H  0.63461631  0.42829689  0.94522886     0.78690
H1821       H  0.71531414  0.36081694  0.85439433     0.79770
H1822       H  0.63962239  0.42762852  0.75585781     0.82000
H1823       H  0.71349134  0.50090440  0.85716175     0.79600
H1824       H  0.69343212  0.31407485  0.90307975     0.42640
H1825       H  0.65836723  0.31353358  0.80865357     0.41610
H1826       H  0.67912456  0.39276451  0.69136904     0.41290
H1827       H  0.66493818  0.46985214  0.69204460     0.39220
H1828       H  0.65803536  0.04462765  0.80178141     0.42350
H1829       H  0.69266983  0.04409150  0.92168293     0.37140
H1830       H  0.65692914  0.47313058  0.01342564     0.43250
H1831       H  0.66077140  0.39173373  0.01265898     0.39670
H1832       H  0.66793936  0.50845782  0.70080051     0.44590
H1833       H  0.66117488  0.04858724  0.91649672     0.43310
H1834       H  0.66813297  0.35375803  0.00805514     0.43450
H1835       H  0.68067605  0.31004804  0.77008987     0.43810
C1836       C  0.67788375  0.17391152  0.86149593    -0.02260
C1837       C  0.67728663  0.43006501  0.35262376    -0.02260
C1838       C  0.93215624  0.17756796  0.35333174    -0.02260
O1839       O  0.99044120  0.11555724  0.67047955    -0.75060
O1840       O  0.51503539  0.09184161  0.72811020    -0.53970
C1841       C  0.49507993  0.10895539  0.71251591     0.78660
O1842       O  0.99022677  0.99191246  0.53860846    -0.59670
O1843       O  0.51764686  0.01479748  0.48300520    -0.52690
C1844       C  0.99712617  0.99729722  0.49712036     0.70680
O1845       O  0.99442371  0.99105516  0.68615563    -0.74220
O1846       O  0.51744585  0.02100092  0.74046153    -0.54790
C1847       C  0.49988013  0.99867544  0.72819473     0.76680
O1848       O  0.00094232  0.11883003  0.52221465    -0.59370
O1849       O  0.52204114  0.08495852  0.46964868    -0.52490
C1850       C  0.50515792  0.10824690  0.48075347     0.73270
Zr1851     Zr  0.51440694  0.10617022  0.60079423     2.54710
O1852       O  0.96647280  0.11950296  0.59120409    -0.79930
O1853       O  0.52534562  0.16533383  0.60593012    -0.93350
Zr1854     Zr  0.50824668  0.00789923  0.60977882     2.64680
O1855       O  0.95916385  0.01541541  0.61668301    -0.98310
O1856       O  0.50556255  0.44740508  0.60890408    -0.80370
O1857       O  0.50969833  0.05881525  0.64934253    -0.83720
O1858       O  0.51092561  0.05520879  0.56126338    -2.18430
O1859       O  0.61102449  0.11241480  0.53650338    -0.67110
O1860       O  0.58579820  0.08607551  0.48070008    -0.51680
C1861       C  0.60539565  0.10514470  0.49478479     0.71660
O1862       O  0.59756779  0.98859411  0.68744890    -0.60020
O1863       O  0.57163953  0.01569786  0.74196630    -0.52000
C1864       C  0.58993736  0.99506193  0.72929283     0.73460
O1865       O  0.60685624  0.98831229  0.52791454    -0.71420
O1866       O  0.58189473  0.01462484  0.47297741    -0.50090
C1867       C  0.60148436  0.99554894  0.48534779     0.74840
O1868       O  0.60970473  0.10916987  0.68607307    -0.66750
O1869       O  0.58238076  0.08744596  0.74158100    -0.53940
C1870       C  0.60354900  0.10423965  0.72844781     0.73220
Zr1871     Zr  0.59297270  0.09858130  0.60957365     2.77540
O1872       O  0.64259696  0.09716694  0.61232287    -0.97500
O1873       O  0.59216429  0.15921969  0.61273347    -0.78320
Zr1874     Zr  0.58794521  0.00006481  0.60670030     2.70070
O1875       O  0.63681323  0.99139071  0.61248948    -0.79560
O1876       O  0.58013786  0.44010383  0.60417657    -0.98650
Zr1877     Zr  0.54899993  0.05535378  0.69585294     2.21500
Zr1878     Zr  0.55178403  0.05092083  0.51743963     2.11130
O1879       O  0.59157302  0.04925718  0.56400647    -2.47330
O1880       O  0.59028077  0.04952958  0.65282704    -0.79360
O1881       O  0.55522265  0.10232380  0.55875318    -0.71550
O1882       O  0.54795862  0.00428225  0.65300844    -2.32510
O1883       O  0.55230030  0.10513399  0.65185277    -2.28720
O1884       O  0.54785055  0.00154143  0.56225251    -0.73310
H1885       H  0.99500711  0.05600848  0.54191948     0.78690
H1886       H  0.54644606  0.48515702  0.67282195     0.79770
H1887       H  0.60797583  0.04845889  0.54549177     0.82000
H1888       H  0.55295847  0.12470796  0.67151680     0.79600
H1889       H  0.52156960  0.44016465  0.62672996     0.42640
H1890       H  0.57252497  0.43565087  0.57312305     0.41610
H1891       H  0.64464559  0.01415910  0.61430651     0.41290
H1892       H  0.64813471  0.08150655  0.58739842     0.39220
H1893       H  0.58373483  0.16587287  0.58328811     0.42350
H1894       H  0.52322608  0.17097036  0.63910222     0.37140
H1895       H  0.95715122  0.09756236  0.58972089     0.43250
H1896       H  0.95420093  0.02944802  0.59015129     0.39670
H1897       H  0.64872118  0.11935229  0.60161611     0.44590
H1898       H  0.00984086  0.17646186  0.59092043     0.43310
H1899       H  0.95125070  0.99323791  0.60939176     0.43450
H1900       H  0.59861567  0.43036871  0.60297448     0.43810
O1901       O  0.99291161  0.35848503  0.02358278    -0.75060
O1902       O  0.51641282  0.32917466  0.96895320    -0.53970
C1903       C  0.49733254  0.34900011  0.98169372     0.78660
O1904       O  0.61257070  0.36361818  0.17368667    -0.59670
O1905       O  0.58834851  0.33992380  0.23212647    -0.52690
C1906       C  0.60856667  0.35729035  0.21703640     0.70680
O1907       O  0.59660695  0.36629875  0.01468719    -0.74220
O1908       O  0.56989748  0.33813649  0.96271681    -0.54790
C1909       C  0.58813953  0.35949601  0.97347589     0.76680
O1910       O  0.99318854  0.35605580  0.17371694    -0.59370
O1911       O  0.52281131  0.34021865  0.22971328    -0.52490
C1912       C  0.50056711  0.35308380  0.21541268     0.73270
Zr1913     Zr  0.51282795  0.35164489  0.09990346     2.54710
O1914       O  0.52230680  0.41114595  0.10047384    -0.79930
O1915       O  0.96512554  0.36815038  0.10466743    -0.93350
Zr1916     Zr  0.59181196  0.35395716  0.09677507     2.64680
O1917       O  0.58958441  0.41454136  0.10028878    -0.98310
O1918       O  0.64086758  0.35817988  0.08635821    -0.80370
O1919       O  0.55133758  0.35146223  0.05253888    -0.83720
O1920       O  0.55309601  0.35561695  0.14523014    -2.18430
O1921       O  0.99897232  0.24358453  0.19077676    -0.67110
O1922       O  0.52587506  0.27301093  0.24072134    -0.51680
C1923       C  0.50612467  0.25272329  0.23156092     0.71660
O1924       O  0.60770542  0.24111707  0.02100520    -0.60020
O1925       O  0.58199165  0.26642708  0.96684308    -0.52000
C1926       C  0.60214547  0.24813853  0.97914424     0.73460
O1927       O  0.61364935  0.24588534  0.16887764    -0.71420
O1928       O  0.58939371  0.27161553  0.22635269    -0.50090
C1929       C  0.60875383  0.25302417  0.21092075     0.74840
O1930       O  0.99293525  0.23686677  0.04111964    -0.66750
O1931       O  0.51706143  0.26058911  0.98205480    -0.53940
C1932       C  0.49768637  0.24272352  0.99870650     0.73220
Zr1933     Zr  0.51327752  0.25292814  0.11151436     2.77540
O1934       O  0.51758521  0.19261152  0.11485341    -0.97500
O1935       O  0.96388506  0.25078194  0.11933222    -0.78320
Zr1936     Zr  0.59242239  0.25497706  0.09752518     2.70070
O1937       O  0.58761554  0.19468983  0.10207751    -0.79560
O1938       O  0.64166692  0.25058894  0.08762779    -0.98650
Zr1939     Zr  0.54944565  0.29900123  0.01325555     2.21500
Zr1940     Zr  0.55556418  0.30597688  0.19037847     2.11130
O1941       O  0.55513129  0.25399914  0.15032431    -2.47330
O1942       O  0.55067841  0.24998463  0.05854337    -0.79360
O1943       O  0.51415402  0.30464068  0.14903476    -0.71550
O1944       O  0.59166905  0.30357699  0.05293319    -2.32510
O1945       O  0.51041456  0.29985308  0.06226699    -2.28720
O1946       O  0.59419875  0.30526716  0.14091189    -0.73310
H1947       H  0.55310738  0.37536718  0.16458193     0.78690
H1948       H  0.60696927  0.30407767  0.03181105     0.79770
H1949       H  0.55637223  0.23547400  0.17121843     0.82000
H1950       H  0.99350210  0.29891443  0.04550044     0.79600
H1951       H  0.64747974  0.33521141  0.09095742     0.42640
H1952       H  0.64957112  0.26774101  0.10849648     0.41610
H1953       H  0.57527161  0.18857210  0.07640624     0.41290
H1954       H  0.52502041  0.18816953  0.14586612     0.39220
H1955       H  0.95835776  0.27444456  0.12111355     0.42350
H1956       H  0.95495906  0.35092304  0.08697934     0.37140
H1957       H  0.51270171  0.41941180  0.07294547     0.43250
H1958       H  0.58545681  0.41994526  0.13301590     0.39670
H1959       H  0.99856977  0.18426286  0.11631969     0.44590
H1960       H  0.96370589  0.38865732  0.08615489     0.43310
H1961       H  0.60866696  0.42205372  0.09577829     0.43450
H1962       H  0.64666929  0.22901293  0.10138356     0.43810
O1963       O  0.85509553  0.49653233  0.00627119    -0.75060
O1964       O  0.88872426  0.02276580  0.04652595    -0.53970
C1965       C  0.87986584  0.00543394  0.01142194     0.78660
O1966       O  0.76316813  0.10534718  0.00596810    -0.59670
O1967       O  0.72735668  0.07967886  0.04109759    -0.52690
C1968       C  0.73766631  0.09864885  0.00904746     0.70680
O1969       O  0.85041725  0.07997226  0.00767594    -0.74220
O1970       O  0.88380141  0.09150667  0.05692854    -0.54790
C1971       C  0.87272067  0.09475566  0.01742427     0.76680
O1972       O  0.77240787  0.48168025  0.00100698    -0.59370
O1973       O  0.73624837  0.00761570  0.03630472    -0.52490
C1974       C  0.74747826  0.98916379  0.00390847     0.73270
Zr1975     Zr  0.81102227  0.00042419  0.03992476     2.54710
O1976       O  0.81029817  0.99764173  0.95598495    -0.79930
O1977       O  0.81793261  0.44087741  0.04668472    -0.93350
Zr1978     Zr  0.80750038  0.09805890  0.03955398     2.64680
O1979       O  0.81251238  0.12073412  0.96237618    -0.98310
O1980       O  0.81494702  0.15722437  0.05351718    -0.80370
O1981       O  0.83505378  0.05042375  0.04155185    -0.83720
O1982       O  0.78239668  0.04774536  0.03694876    -2.18430
O1983       O  0.76305721  0.49137029  0.20473871    -0.67110
O1984       O  0.72759158  0.01285332  0.16500533    -0.51680
C1985       C  0.73759245  0.99675206  0.20017899     0.71660
O1986       O  0.84615591  0.10793388  0.21181542    -0.60020
O1987       O  0.88262920  0.08666261  0.17260108    -0.52000
C1988       C  0.87177984  0.10271976  0.20726046     0.73460
O1989       O  0.75885696  0.10780881  0.19649919    -0.71420
O1990       O  0.72541542  0.08171811  0.15448116    -0.50090
C1991       C  0.73404872  0.10031583  0.18819537     0.74840
O1992       O  0.85054825  0.49553400  0.20159105    -0.66750
O1993       O  0.88632858  0.01622244  0.15970937    -0.53940
C1994       C  0.87586558  0.00035050  0.19377644     0.73220
Zr1995     Zr  0.80646509  0.00113005  0.16918224     2.77540
O1996       O  0.81118940  0.98361855  0.24913163    -0.97500
O1997       O  0.80419632  0.44310209  0.14603387    -0.78320
Zr1998     Zr  0.80435108  0.09927752  0.16998723     2.70070
O1999       O  0.79959605  0.11036065  0.25239277    -0.79560
O2000       O  0.80492573  0.15891352  0.15545382    -0.98650
Zr2001     Zr  0.86243817  0.05271530  0.10878597     2.21500
Zr2002     Zr  0.75130523  0.04565606  0.10089555     2.11130
O2003       O  0.77926070  0.04900820  0.16862348    -2.47330
O2004       O  0.83162621  0.05139883  0.17269830    -0.79360
O2005       O  0.77958978  0.99696430  0.10221356    -0.71550
O2006       O  0.83458043  0.10219866  0.10685527    -2.32510
O2007       O  0.83757425  0.00101347  0.10698214    -2.28720
O2008       O  0.77700346  0.09733120  0.10288532    -0.73310
H2009       H  0.77308809  0.04673102  0.00775229     0.78690
H2010       H  0.84551170  0.12229540  0.10788705     0.79770
H2011       H  0.76849078  0.04933802  0.19652454     0.82000
H2012       H  0.84976268  0.48227146  0.10798476     0.79600
H2013       H  0.82946147  0.16316369  0.03113314     0.42640
H2014       H  0.78641430  0.16379280  0.14404750     0.41610
H2015       H  0.79880878  0.08799131  0.26647571     0.41290
H2016       H  0.79851278  0.99755177  0.26761857     0.39220
H2017       H  0.78490114  0.43690976  0.15159441     0.42350
H2018       H  0.83426390  0.43822447  0.06607993     0.37140
H2019       H  0.80847427  0.02110997  0.94630565     0.43250
H2020       H  0.80138352  0.10586392  0.94244811     0.39670
H2021       H  0.80356670  0.46075070  0.25023960     0.44590
H2022       H  0.82426595  0.43420415  0.01543299     0.43310
H2023       H  0.80277903  0.14224089  0.96297094     0.43450
H2024       H  0.80549729  0.16935107  0.18656294     0.43810
C2025       C  0.80164418  0.30666773  0.09987135    -0.02260
C2026       C  0.54660815  0.29902025  0.60699153    -0.02260
O2027       O  0.62233532  0.23692725  0.43400690    -0.75060
O2028       O  0.64605209  0.20944797  0.48849584    -0.53970
C2029       C  0.62704707  0.23008706  0.47643725     0.78660
O2030       O  0.61739188  0.11341817  0.26886384    -0.59670
O2031       O  0.64185157  0.14116144  0.21405246    -0.52690
C2032       C  0.62267936  0.12084258  0.22657286     0.70680
O2033       O  0.61689119  0.11358588  0.41913965    -0.74220
O2034       O  0.64325734  0.13781689  0.47537527    -0.54790
C2035       C  0.62306366  0.11983073  0.46096049     0.76680
O2036       O  0.62171526  0.24430657  0.28559841    -0.59370
O2037       O  0.64340122  0.21585134  0.22731336    -0.52490
C2038       C  0.62606263  0.23708554  0.24333875     0.73270
Zr2039     Zr  0.63860754  0.22475015  0.35625320     2.54710
O2040       O  0.58904394  0.22663930  0.35829727    -0.79930
O2041       O  0.64467185  0.28497910  0.36127675    -0.93350
Zr2042     Zr  0.63504841  0.12672864  0.34587919     2.64680
O2043       O  0.58538066  0.12620036  0.34825904    -0.98310
O2044       O  0.63898565  0.06625216  0.34370993    -0.80370
O2045       O  0.63705066  0.17429732  0.39579578    -0.83720
O2046       O  0.63512392  0.17734675  0.30617693    -2.18430
O2047       O  0.73141585  0.23766234  0.26868006    -0.67110
O2048       O  0.70736045  0.21008028  0.21310117    -0.51680
C2049       C  0.72597647  0.23116639  0.22604786     0.71660
O2050       O  0.73158456  0.10742170  0.42469672    -0.60020
O2051       O  0.70971371  0.13723912  0.48136724    -0.52000
C2052       C  0.72763361  0.11561973  0.46776032     0.73460
O2053       O  0.72267502  0.10763601  0.26518582    -0.71420
O2054       O  0.69847597  0.13576196  0.21075214    -0.50090
C2055       C  0.71600030  0.11418652  0.22309782     0.74840
O2056       O  0.73718014  0.23414623  0.42019641    -0.66750
O2057       O  0.71188616  0.20911046  0.47695592    -0.53940
C2058       C  0.73159930  0.22790072  0.46244994     0.73220
Zr2059     Zr  0.71796435  0.22094750  0.34642495     2.77540
O2060       O  0.76753163  0.21886067  0.34221783    -0.97500
O2061       O  0.71631209  0.28152326  0.34981781    -0.78320
Zr2062     Zr  0.71444698  0.12249823  0.34658838     2.70070
O2063       O  0.76386884  0.12077929  0.33994943    -0.79560
O2064       O  0.71043083  0.06200770  0.34812933    -0.98650
Zr2065     Zr  0.67751585  0.17350833  0.44043913     2.21500
Zr2066     Zr  0.67470581  0.17558933  0.25812903     2.11130
O2067       O  0.71608425  0.17179794  0.30124149    -2.47330
O2068       O  0.71685177  0.17184040  0.39149498    -0.79360
O2069       O  0.67690461  0.22470876  0.30517596    -0.71550
O2070       O  0.67472940  0.12387582  0.39312965    -2.32510
O2071       O  0.67963668  0.22383965  0.39748423    -2.28720
O2072       O  0.67461191  0.12474088  0.30035956    -0.73310
H2073       H  0.61864482  0.17846579  0.28823938     0.78690
H2074       H  0.67403251  0.10425478  0.41214942     0.79770
H2075       H  0.73167918  0.17103733  0.28074354     0.82000
H2076       H  0.68088552  0.24307728  0.41768689     0.79600
H2077       H  0.64343934  0.05990103  0.37571798     0.42640
H2078       H  0.69691702  0.05644782  0.32396289     0.41610
H2079       H  0.77011538  0.14224000  0.35345845     0.41290
H2080       H  0.77164823  0.20467899  0.31491659     0.39220
H2081       H  0.70215688  0.28761942  0.32727356     0.42350
H2082       H  0.65111585  0.28944877  0.39307527     0.37140
H2083       H  0.58336479  0.20379241  0.36684040     0.43250
H2084       H  0.57973238  0.14237887  0.32464877     0.39670
H2085       H  0.77321856  0.24156992  0.33302122     0.44590
H2086       H  0.62591605  0.29390375  0.36094789     0.43310
H2087       H  0.57996758  0.10416627  0.33552052     0.43450
H2088       H  0.72796831  0.05390101  0.33536233     0.43810
O2089       O  0.85877739  0.23671739  0.67407773    -0.75060
O2090       O  0.83618344  0.26439304  0.73202412    -0.53970
C2091       C  0.85432286  0.24418381  0.71631173     0.78660
O2092       O  0.85935596  0.36631023  0.53723070    -0.59670
O2093       O  0.83399416  0.34003962  0.48131177    -0.52690
C2094       C  0.85330050  0.35968411  0.49540927     0.70680
O2095       O  0.85854217  0.36801350  0.68771922    -0.74220
O2096       O  0.83646981  0.33716121  0.74213739    -0.54790
C2097       C  0.85372249  0.35999563  0.72999065     0.76680
O2098       O  0.85466020  0.23785498  0.52382721    -0.59370
O2099       O  0.83227053  0.26651489  0.46891913    -0.52490
C2100       C  0.85059289  0.24514689  0.48127928     0.73270
Zr2101     Zr  0.83951147  0.25103075  0.60221534     2.54710
O2102       O  0.88870177  0.24426871  0.59700383    -0.79930
O2103       O  0.83163754  0.19103508  0.60056908    -0.93350
Zr2104     Zr  0.84412058  0.34890566  0.61080614     2.64680
O2105       O  0.89330230  0.34122851  0.61260096    -0.98310
O2106       O  0.84582160  0.40936567  0.61455310    -0.80370
O2107       O  0.84343682  0.29877687  0.65161926    -0.83720
O2108       O  0.84178327  0.30105604  0.56143568    -2.18430
O2109       O  0.74351444  0.23793910  0.53885545    -0.67110
O2110       O  0.76776542  0.26433081  0.48189408    -0.51680
C2111       C  0.74890620  0.24431575  0.49654911     0.71660
O2112       O  0.75563195  0.36928548  0.69071731    -0.60020
O2113       O  0.78049396  0.34274724  0.74576098    -0.52000
C2114       C  0.76274940  0.36389903  0.73290088     0.73460
O2115       O  0.74707333  0.36759296  0.53177665    -0.71420
O2116       O  0.76849767  0.33795165  0.47470982    -0.50090
C2117       C  0.75062059  0.35959061  0.48859558     0.74840
O2118       O  0.74674887  0.23839525  0.69076116    -0.66750
O2119       O  0.77122574  0.26777976  0.74430688    -0.53940
C2120       C  0.75272113  0.24612963  0.73280529     0.73220
Zr2121     Zr  0.76018066  0.25560379  0.61285765     2.77540
O2122       O  0.71093645  0.26246195  0.61714779    -0.97500
O2123       O  0.75813953  0.19512915  0.61570215    -0.78320
Zr2124     Zr  0.76430392  0.35378635  0.60992568     2.70070
O2125       O  0.71489283  0.35647062  0.61604851    -0.79560
O2126       O  0.76856455  0.41424329  0.60817320    -0.98650
Zr2127     Zr  0.80383951  0.30199274  0.69915616     2.21500
Zr2128     Zr  0.80097225  0.30232250  0.51699175     2.11130
O2129       O  0.76147779  0.30405338  0.56614629    -2.47330
O2130       O  0.76227827  0.30532156  0.65690165    -0.79360
O2131       O  0.79838691  0.25232374  0.56122373    -0.71550
O2132       O  0.80438845  0.35189762  0.65520229    -2.32510
O2133       O  0.80140518  0.25210914  0.65356578    -2.28720
O2134       O  0.80422921  0.35200521  0.56385527    -0.73310
H2135       H  0.85772821  0.30059046  0.54174751     0.78690
H2136       H  0.80572785  0.37148902  0.67468636     0.79770
H2137       H  0.74508801  0.30448390  0.54791611     0.82000
H2138       H  0.80129866  0.23262694  0.67287125     0.79600
H2139       H  0.82678853  0.41615622  0.62079314     0.42640
H2140       H  0.77741501  0.41905255  0.57812579     0.41610
H2141       H  0.70960401  0.33572678  0.63209125     0.41290
H2142       H  0.70612604  0.27498561  0.58911570     0.39220
H2143       H  0.77689017  0.18818368  0.62319041     0.42350
H2144       H  0.83012472  0.18458215  0.63340042     0.37140
H2145       H  0.89627269  0.26591070  0.60769218     0.43250
H2146       H  0.89781942  0.32951497  0.58331760     0.39670
H2147       H  0.70343284  0.23981342  0.61169175     0.44590
H2148       H  0.84921362  0.18153277  0.59008104     0.43310
H2149       H  0.90099195  0.36390915  0.60880763     0.43450
H2150       H  0.74965443  0.42225918  0.60477226     0.43810
C2151       C  0.80198808  0.04898065  0.60340756    -0.02260
C2152       C  0.54932931  0.04871889  0.09639310    -0.02260
C2153       C  0.61593992  0.08505807  0.15503615    -0.21080
C2154       C  0.60491376  0.10478522  0.19073444    -0.09120
C2155       C  0.57641359  0.10624288  0.19494173     0.29740
C2156       C  0.55948444  0.08903365  0.16376822    -0.21080
C2157       C  0.57005558  0.06898560  0.12734631    -0.09130
C2158       C  0.59902720  0.06664417  0.12465497     0.29740
F2159       F  0.61155830  0.04528152  0.09503791    -0.19660
H2160       H  0.63784247  0.08242838  0.15218188     0.18110
H2161       H  0.53766307  0.09121774  0.16836746     0.18120
F2162       F  0.56479173  0.12440309  0.22952185    -0.19640
C2163       C  0.77414590  0.10151713  0.57357698    -0.21080
C2164       C  0.78013415  0.06693544  0.57128559    -0.09120
C2165       C  0.76792974  0.04921988  0.53343469     0.29740
C2166       C  0.75126050  0.06498875  0.50073455    -0.21080
C2167       C  0.74513627  0.09903022  0.50399435    -0.09130
C2168       C  0.75668568  0.11698872  0.54130222     0.29740
F2169       F  0.75223197  0.15017690  0.54516578    -0.19660
H2170       H  0.78333982  0.11733947  0.59950677     0.18110
H2171       H  0.74287477  0.05022044  0.47265352     0.18120
F2172       F  0.77223746  0.01605727  0.52766310    -0.19640
C2173       C  0.60892696  0.24251508  0.55955640    -0.21080
C2174       C  0.60845599  0.24781638  0.51152796    -0.09120
C2175       C  0.58980805  0.27200268  0.49632842     0.29740
C2176       C  0.57165227  0.28803134  0.52670150    -0.21080
C2177       C  0.56931496  0.28061192  0.57456441    -0.09130
C2178       C  0.59073788  0.25941551  0.59051294     0.29740
F2179       F  0.59734891  0.25843932  0.63568267    -0.19660
H2180       H  0.62421711  0.22625044  0.57365394     0.18110
H2181       H  0.56019427  0.30771621  0.51118627     0.18120
F2182       F  0.58922801  0.28151868  0.45147351    -0.19640
C2183       C  0.76786327  0.25638847  0.11805184    -0.21080
C2184       C  0.78056321  0.28692953  0.13230211    -0.09120
C2185       C  0.77224510  0.29872040  0.17689975     0.29740
C2186       C  0.75418867  0.28078253  0.20494306    -0.21080
C2187       C  0.74281540  0.25020580  0.19123491    -0.09130
C2188       C  0.74955390  0.23835566  0.14674187     0.29740
F2189       F  0.73941069  0.20874018  0.13148245    -0.19660
H2190       H  0.77279040  0.24545976  0.08476598     0.18110
H2191       H  0.74918186  0.29122460  0.23858131     0.18120
F2192       F  0.78099765  0.32767083  0.19558361    -0.19640
C2193       C  0.92997950  0.14413733  0.27402259    -0.21080
C2194       C  0.91743372  0.15390696  0.31673472    -0.09120
C2195       C  0.89076730  0.14094190  0.32412131     0.29740
C2196       C  0.87677234  0.12374282  0.28894499    -0.21080
C2197       C  0.88884922  0.11700596  0.24554651    -0.09130
C2198       C  0.91613103  0.12611514  0.23943448     0.29740
F2199       F  0.92928732  0.11894569  0.19920523    -0.19660
H2200       H  0.95052952  0.15045231  0.26522908     0.18110
H2201       H  0.85604830  0.11570516  0.29590014     0.18120
F2202       F  0.87774680  0.14440992  0.36530900    -0.19640
C2203       C  0.97810310  0.18758826  0.31064723    -0.21080
C2204       C  0.95278716  0.20116843  0.32636545    -0.09120
C2205       C  0.94893133  0.23540949  0.31684916     0.29740
C2206       C  0.96711679  0.25282589  0.28768568    -0.21080
C2207       C  0.99049869  0.23753974  0.26966739    -0.09130
C2208       C  0.49617478  0.20501611  0.28237095     0.29740
F2209       F  0.51851032  0.18927829  0.26515669    -0.19660
H2210       H  0.98346868  0.16208120  0.31794643     0.18110
H2211       H  0.96256324  0.27812635  0.27792431     0.18120
F2212       F  0.92810750  0.25273629  0.33528932    -0.19640
C2213       C  0.95363696  0.12235659  0.38502041    -0.21080
C2214       C  0.95134406  0.15750165  0.38581358    -0.09120
C2215       C  0.96869932  0.17548454  0.41650749     0.29740
C2216       C  0.98678608  0.15917510  0.44530671    -0.21080
C2217       C  0.98879120  0.12446731  0.44457962    -0.09130
C2218       C  0.97214509  0.10608743  0.41410666     0.29740
F2219       F  0.47266589  0.07233821  0.41450746    -0.19660
H2220       H  0.94101497  0.10723233  0.36252581     0.18110
H2221       H  0.99903556  0.17383555  0.46909612     0.18120
F2222       F  0.96758434  0.20924235  0.41947972    -0.19640
C2223       C  0.90786077  0.18950356  0.43327317    -0.21080
C2224       C  0.90979663  0.19613276  0.38523574    -0.09120
C2225       C  0.88825054  0.21630232  0.36807508     0.29740
C2226       C  0.86923975  0.23262878  0.39825405    -0.21080
C2227       C  0.86942926  0.22753892  0.44652767    -0.09130
C2228       C  0.88874169  0.20448881  0.46268716     0.29740
F2229       F  0.88932054  0.19534806  0.50769501    -0.19660
H2230       H  0.92053936  0.17136653  0.44969142     0.18110
H2231       H  0.85411233  0.24885034  0.38360271     0.18120
F2232       F  0.88514413  0.21983618  0.32183762    -0.19640
C2233       C  0.66808196  0.40559711  0.26918968    -0.21080
C2234       C  0.66288180  0.40476536  0.31763735    -0.09120
C2235       C  0.64397390  0.37996319  0.33179216     0.29740
C2236       C  0.62634157  0.36444871  0.29940830    -0.21080
C2237       C  0.62862725  0.37096205  0.25160528    -0.09130
C2238       C  0.65104518  0.39008314  0.23707840     0.29740
F2239       F  0.65661897  0.39449526  0.19155061    -0.19660
H2240       H  0.68518123  0.41882356  0.25454596     0.18110
H2241       H  0.61055235  0.34784007  0.31198327     0.18120
F2242       F  0.64081858  0.37291164  0.37727014    -0.19640
C2243       C  0.73494932  0.46352281  0.27340370    -0.21080
C2244       C  0.72107190  0.48334552  0.24090776    -0.09120
C2245       C  0.69379114  0.49110690  0.25160690     0.29740
C2246       C  0.68081390  0.47730800  0.29129376    -0.21080
C2247       C  0.69441710  0.45487047  0.32150273    -0.09130
C2248       C  0.72248390  0.45032825  0.31277816     0.29740
F2249       F  0.73836487  0.43180676  0.34048273    -0.19660
H2250       H  0.75612941  0.45721342  0.26838608     0.18110
H2251       H  0.65926524  0.48184592  0.29616025     0.18120
F2252       F  0.67940699  0.51112487  0.22342075    -0.19640
C2253       C  0.62705841  0.44380684  0.38268824    -0.21080
C2254       C  0.65538951  0.45160641  0.38069219    -0.09120
C2255       C  0.66320589  0.48035919  0.40679067     0.29740
C2256       C  0.64598304  0.49391707  0.44129196    -0.21080
C2257       C  0.61940759  0.48167421  0.44794102    -0.09130
C2258       C  0.60960239  0.45800448  0.41618512     0.29740
F2259       F  0.58313233  0.44803961  0.41802270    -0.19660
H2260       H  0.61754031  0.42685137  0.35882305     0.18110
H2261       H  0.65346938  0.01414727  0.46286823     0.18120
F2262       F  0.68841737  0.49402807  0.40152771    -0.19640
C2263       C  0.70220931  0.42279658  0.43333754    -0.21080
C2264       C  0.69595386  0.40998415  0.38852016    -0.09120
C2265       C  0.70906039  0.37907827  0.37754605     0.29740
C2266       C  0.72681538  0.36307727  0.40917492    -0.21080
C2267       C  0.73248894  0.37668552  0.45333448    -0.09130
C2268       C  0.71977598  0.40702722  0.46436104     0.29740
F2269       F  0.72469609  0.42244210  0.50546513    -0.19660
H2270       H  0.69393512  0.44542240  0.44660723     0.18110
H2271       H  0.73613718  0.33976488  0.39891460     0.18120
F2272       F  0.70581810  0.36454011  0.33546151    -0.19640
C2273       C  0.61918820  0.11582630  0.81040269    -0.21080
C2274       C  0.62263288  0.11964280  0.76278751    -0.09120
C2275       C  0.64411507  0.14027404  0.74763617     0.29740
C2276       C  0.66112363  0.15650074  0.77883752    -0.21080
C2277       C  0.65927181  0.15216642  0.82738344    -0.09130
C2278       C  0.63648737  0.13223269  0.84210172     0.29740
F2279       F  0.62734012  0.13260703  0.88602533    -0.19660
H2280       H  0.60205094  0.10152506  0.82344861     0.18110
H2281       H  0.67433911  0.17455876  0.76298968     0.18120
F2282       F  0.64827334  0.14669133  0.70214523    -0.19640
C2283       C  0.63253344  0.20679218  0.87238040    -0.21080
C2284       C  0.65879349  0.19798128  0.88873756    -0.09120
C2285       C  0.66714804  0.21247949  0.93104272     0.29740
C2286       C  0.64874059  0.22998057  0.95857837    -0.21080
C2287       C  0.62163943  0.23460319  0.94474540    -0.09130
C2288       C  0.61402172  0.22439709  0.90031589     0.29740
F2289       F  0.58842455  0.22985920  0.88476542    -0.19660
H2290       H  0.62574970  0.19935642  0.83834665     0.18110
H2291       H  0.65568968  0.23944125  0.99166828     0.18120
F2292       F  0.69312229  0.20976032  0.94623527    -0.19640
C2293       C  0.67925427  0.13305252  0.93360410    -0.21080
C2294       C  0.69342721  0.15129501  0.89842662    -0.09120
C2295       C  0.72225598  0.15230769  0.90445097     0.29740
C2296       C  0.73520554  0.13367646  0.93809697    -0.21080
C2297       C  0.72105499  0.11487175  0.97145276    -0.09130
C2298       C  0.69256029  0.11480950  0.96859905     0.29740
F2299       F  0.67736897  0.09880760  0.00091298    -0.19660
H2300       H  0.65783654  0.13553821  0.93850626     0.18110
H2301       H  0.75710942  0.13607395  0.93917864     0.18120
F2302       F  0.73880867  0.17457474  0.88327702    -0.19640
C2303       C  0.71964087  0.24659083  0.79999510    -0.21080
C2304       C  0.73660915  0.22870205  0.76966930    -0.09120
C2305       C  0.73553508  0.19376275  0.77120104     0.29740
C2306       C  0.71783143  0.17729854  0.80198025    -0.21080
C2307       C  0.69931317  0.19475444  0.83147967    -0.09130
C2308       C  0.70099783  0.23032803  0.82970928     0.29740
F2309       F  0.68438531  0.25024913  0.85507225    -0.19660
H2310       H  0.71988858  0.27354766  0.79912661     0.18110
H2311       H  0.71771956  0.15030882  0.80175628     0.18120
F2312       F  0.75149024  0.17535328  0.74238025    -0.19640
C2313       C  0.58784758  0.33347243  0.63752752    -0.21080
C2314       C  0.56106096  0.32159577  0.64458580    -0.09120
C2315       C  0.54817503  0.33179941  0.68686072     0.29740
C2316       C  0.56267789  0.34910472  0.72185276    -0.21080
C2317       C  0.59017498  0.35786562  0.71575472    -0.09130
C2318       C  0.60208323  0.35093617  0.67203477     0.29740
F2319       F  0.62781691  0.36122918  0.66201415    -0.19660
H2320       H  0.59825886  0.32921420  0.60500503     0.18110
H2321       H  0.55246529  0.35501319  0.75413943     0.18120
F2322       F  0.52142680  0.32540970  0.69487256    -0.19640
C2323       C  0.57704661  0.04677973  0.02173519    -0.21080
C2324       C  0.56314996  0.02827001  0.05604054    -0.09120
C2325       C  0.55783389  0.49404825  0.04523371     0.29740
C2326       C  0.56760461  0.47933462  0.00388753    -0.21080
C2327       C  0.58186479  0.49819989  0.97107867    -0.09130
C2328       C  0.58580525  0.03236462  0.98021666     0.29740
F2329       F  0.59957601  0.05168778  0.94956536    -0.19660
H2330       H  0.58065839  0.07320238  0.02691906     0.18110
H2331       H  0.56481984  0.45280428  0.99830142     0.18120
F2332       F  0.54222650  0.47463557  0.07272272    -0.19640
C2333       C  0.78147442  0.37400897  0.00596727    -0.21080
C2334       C  0.75969907  0.35830047  0.98351182    -0.09120
C2335       C  0.75143791  0.32686265  0.99996212     0.29740
C2336       C  0.76384244  0.31233112  0.03815929    -0.21080
C2337       C  0.78536833  0.32783107  0.06274338    -0.09130
C2338       C  0.79440133  0.35913205  0.04413467     0.29740
F2339       F  0.81750955  0.37420421  0.05906880    -0.19660
H2340       H  0.78850867  0.39795476  0.99381931     0.18110
H2341       H  0.75645770  0.28804425  0.04699236     0.18120
F2342       F  0.73117802  0.30951786  0.97860627    -0.19640
C2343       C  0.74800368  0.49986211  0.67808682    -0.21080
C2344       C  0.76223091  0.49132220  0.71859961    -0.09120
C2345       C  0.79056952  0.49708582  0.71773687     0.29740
C2346       C  0.80329993  0.01233943  0.67870744    -0.21080
C2347       C  0.78821159  0.02439165  0.64004393    -0.09130
C2348       C  0.76002030  0.01660414  0.64095116     0.29740
F2349       F  0.74284158  0.02541866  0.60701560    -0.19660
H2350       H  0.72643263  0.49478662  0.67515721     0.18110
H2351       H  0.82505989  0.01670939  0.68017184     0.18120
F2352       F  0.80584963  0.48940155  0.75495207    -0.19640
C2353       C  0.86376764  0.09151578  0.66750550    -0.21400
C2354       C  0.85089668  0.10750446  0.70441667    -0.09120
C2355       C  0.82225400  0.10794017  0.70555040     0.29740
C2356       C  0.80702288  0.09178879  0.67058778    -0.21080
C2357       C  0.81973183  0.07374511  0.63398969    -0.09130
C2358       C  0.84901996  0.07412129  0.63397698     0.29740
F2359       F  0.86459107  0.05533246  0.60524669    -0.19660
H2360       H  0.88583113  0.09038199  0.66629962     0.18110
H2361       H  0.78502700  0.09148325  0.67381132     0.18120
F2362       F  0.80896412  0.12366256  0.74065811    -0.19640
C2363       C  0.00958499  0.05387849  0.04199705    -0.21080
C2364       C  0.52951887  0.07089845  0.06871939    -0.09120
C2365       C  0.53083246  0.10614535  0.06525940     0.29740
C2366       C  0.51204287  0.12305594  0.03784930    -0.21080
C2367       C  0.99251019  0.10534334  0.01224733    -0.09130
C2368       C  0.99145518  0.07069969  0.01447096     0.29740
F2369       F  0.97302276  0.05298301  0.98926679    -0.19660
H2370       H  0.00796865  0.02697952  0.04280071     0.18110
H2371       H  0.51370687  0.14984969  0.03453099     0.18120
F2372       F  0.55096905  0.12440441  0.08513691    -0.19640
C2373       C  0.83628221  0.29863962  0.03477453    -0.21080
C2374       C  0.82065842  0.28342740  0.07011654    -0.09120
C2375       C  0.82824402  0.25022780  0.08171190     0.29740
C2376       C  0.84791406  0.23291430  0.05529977    -0.21080
C2377       C  0.86082433  0.24823079  0.01775329    -0.09130
C2378       C  0.85553210  0.28162756  0.00910058     0.29740
F2379       F  0.86928529  0.29822163  0.97545231    -0.19660
H2380       H  0.83460260  0.32448211  0.02678342     0.18110
H2381       H  0.85315405  0.20770091  0.06433368     0.18120
F2382       F  0.81946316  0.23566569  0.12116750    -0.19640
C2383       C  0.53787816  0.25049172  0.66539152    -0.21080
C2384       C  0.52705006  0.27364885  0.63388725    -0.09120
C2385       C  0.99768924  0.27641642  0.63538011     0.29740
C2386       C  0.98143192  0.25606899  0.66337382    -0.21080
C2387       C  0.99297476  0.23461373  0.69493543    -0.09130
C2388       C  0.52141566  0.23183054  0.69560016     0.29740
F2389       F  0.53350931  0.21200942  0.72705307    -0.19660
H2390       H  0.55918867  0.24850010  0.67080550     0.18110
H2391       H  0.95960172  0.26004401  0.66414450     0.18120
F2392       F  0.98387372  0.30193364  0.61645502    -0.19640
C2393       C  0.83452035  0.37683669  0.17800847    -0.21080
C2394       C  0.85909846  0.36219776  0.19094652    -0.09120
C2395       C  0.86498180  0.33019611  0.17504532     0.29740
C2396       C  0.84658855  0.31302610  0.14689446    -0.21080
C2397       C  0.82199788  0.32759529  0.13101728    -0.09130
C2398       C  0.81637110  0.36017917  0.14803950     0.29740
F2399       F  0.79211834  0.37473657  0.13915797    -0.19660
H2400       H  0.82895659  0.40069543  0.19280458     0.18110
H2401       H  0.85201903  0.28774781  0.13869024     0.18120
F2402       F  0.88791084  0.31459674  0.18911059    -0.19640
C2403       C  0.54550578  0.00216254  0.15709258    -0.21080
C2404       C  0.53244586  0.02716186  0.13132738    -0.09120
C2405       C  0.00462930  0.03379081  0.14299288     0.29740
C2406       C  0.99010987  0.01325051  0.17273406    -0.21080
C2407       C  0.00290501  0.48765679  0.19595971    -0.09130
C2408       C  0.53096207  0.48269781  0.18917573     0.29740
F2409       F  0.54422406  0.45914633  0.21348335    -0.19660
H2410       H  0.56704594  0.99761393  0.15194698     0.18110
H2411       H  0.96897046  0.01898553  0.18030136     0.18120
F2412       F  0.99145902  0.06165419  0.12965831    -0.19640
C2413       C  0.50439852  0.37104353  0.54863707    -0.21080
C2414       C  0.98964925  0.35297867  0.51518854    -0.09120
C2415       C  0.99422722  0.31856363  0.51130919     0.29740
C2416       C  0.01268325  0.30270444  0.54016019    -0.21080
C2417       C  0.52777408  0.32021395  0.57453879    -0.09130
C2418       C  0.52335725  0.35524121  0.57771119     0.29740
F2419       F  0.53727173  0.37476797  0.60795954    -0.19660
H2420       H  0.50202818  0.39776624  0.55093754     0.18110
H2421       H  0.01501164  0.27599471  0.53631736     0.18120
F2422       F  0.98068920  0.29995611  0.47932416    -0.19640
C2423       C  0.85133514  0.03489240  0.49975444    -0.21080
C2424       C  0.85868258  0.50144668  0.50349766    -0.09120
C2425       C  0.84665434  0.48243619  0.53891958     0.29740
C2426       C  0.82806661  0.49684197  0.57051976    -0.21080
C2427       C  0.82132830  0.03095618  0.56811976    -0.09130
C2428       C  0.83326948  0.04954692  0.53136406     0.29740
F2429       F  0.82863584  0.08270274  0.52749242    -0.19660
H2430       H  0.86013078  0.05008874  0.47270779     0.18110
H2431       H  0.81924597  0.48113159  0.59682210     0.18120
F2432       F  0.85215745  0.44950258  0.54180177    -0.19640
C2433       C  0.89502467  0.47067847  0.89337392    -0.21080
C2434       C  0.91932154  0.45293990  0.89912258    -0.09120
C2435       C  0.93416994  0.46025736  0.94074581     0.29740
C2436       C  0.92268219  0.47939298  0.97704058    -0.21080
C2437       C  0.89724474  0.49418603  0.97170318    -0.09130
C2438       C  0.88488348  0.99180643  0.92784111     0.29740
F2439       F  0.86163123  0.00863467  0.91900471    -0.19660
H2440       H  0.88295949  0.46816999  0.86276759     0.18110
H2441       H  0.93320473  0.48148968  0.00970344     0.18120
F2442       F  0.95974153  0.44857797  0.94710259    -0.19640
C2443       C  0.96281151  0.47643153  0.83924588    -0.21080
C2444       C  0.94930316  0.44630495  0.82685357    -0.09120
C2445       C  0.95589084  0.43222622  0.78306002     0.29740
C2446       C  0.97237582  0.44935079  0.75186276    -0.21080
C2447       C  0.98442453  0.98002731  0.76377215    -0.09130
C2448       C  0.98063250  0.99252200  0.80865116     0.29740
F2449       F  0.99395610  0.02045755  0.82291055    -0.19660
H2450       H  0.96019828  0.48783104  0.87279967     0.18110
H2451       H  0.97600567  0.43816197  0.71819600     0.18120
F2452       F  0.94684202  0.40146127  0.77035934    -0.19640
C2453       C  0.89893190  0.37654808  0.83466910    -0.21080
C2454       C  0.90576069  0.41103510  0.83168213    -0.09120
C2455       C  0.89296158  0.42850556  0.79503585     0.29740
C2456       C  0.87562282  0.41216729  0.76327843    -0.21080
C2457       C  0.86971890  0.37800188  0.76667056    -0.09130
C2458       C  0.88114574  0.36066370  0.80335116     0.29740
F2459       F  0.87678496  0.32743296  0.80665275    -0.19660
H2460       H  0.90812186  0.36055955  0.85965389     0.18110
H2461       H  0.86730183  0.42625039  0.73501385     0.18120
F2462       F  0.89905258  0.46098093  0.78693912    -0.19640
C2463       C  0.97382703  0.39284334  0.87509677    -0.21080
C2464       C  0.94628097  0.40016498  0.88626879    -0.09120
C2465       C  0.93506110  0.38474368  0.92606756     0.29740
C2466       C  0.95154088  0.36679157  0.95587788    -0.21080
C2467       C  0.97930664  0.36253917  0.94621810    -0.09130
C2468       C  0.49002057  0.37423997  0.90450484     0.29740
F2469       F  0.51681895  0.37028371  0.89397814    -0.19660
H2470       H  0.98391578  0.40279420  0.84505539     0.18110
H2471       H  0.94279468  0.35727170  0.98759949     0.18120
F2472       F  0.90860082  0.38956567  0.93831413    -0.19640
C2473       C  0.92985534  0.92759350  0.86089266    -0.02260
O2474       O  0.98740249  0.98733213  0.42207690    -0.75060
O2475       O  0.95980024  0.96409499  0.47727595    -0.53970
C2476       C  0.98014373  0.98201382  0.46342928     0.78660
O2477       O  0.88520025  0.99349917  0.26993052    -0.59670
O2478       O  0.91004080  0.96435449  0.21616910    -0.52690
C2479       C  0.89250348  0.98615066  0.22839971     0.70680
O2480       O  0.87523563  0.99552193  0.42642295    -0.74220
O2481       O  0.89472354  0.96431398  0.48267927    -0.54790
C2482       C  0.87762086  0.98627729  0.46882543     0.76680
O2483       O  0.99408149  0.97648909  0.27402153    -0.59370
O2484       O  0.96577989  0.95398323  0.21983464    -0.52490
C2485       C  0.98704721  0.97070109  0.23209553     0.73270
Zr2486     Zr  0.97334552  0.96859520  0.34957779     2.54710
O2487       O  0.97684540  0.52856246  0.33941235    -0.79930
O2488       O  0.52250897  0.96114393  0.35412570    -0.93350
Zr2489     Zr  0.89404422  0.98097016  0.34975400     2.64680
O2490       O  0.90216218  0.54090030  0.35247708    -0.98310
O2491       O  0.84528873  0.99028297  0.34278483    -0.80370
O2492       O  0.93326291  0.97665857  0.39575199    -0.83720
O2493       O  0.93443831  0.97499055  0.30481093    -2.18430
O2494       O  0.98598671  0.85944569  0.29019046    -0.67110
O2495       O  0.96278372  0.88444840  0.23196088    -0.51680
C2496       C  0.98183155  0.86623067  0.24806163     0.71660
O2497       O  0.86470230  0.86909382  0.41946855    -0.60020
O2498       O  0.89090029  0.89322123  0.47596321    -0.52000
C2499       C  0.87068553  0.87521214  0.46146128     0.73460
O2500       O  0.86763016  0.87231507  0.26919107    -0.71420
O2501       O  0.89807384  0.89275834  0.21670404    -0.50090
C2502       C  0.87597734  0.87714483  0.22770384     0.74840
O2503       O  0.97758136  0.85990580  0.43767119    -0.66750
O2504       O  0.95561527  0.89275130  0.49023827    -0.53940
C2505       C  0.97299633  0.86979898  0.47925839     0.73220
Zr2506     Zr  0.96267595  0.87146017  0.35979763     2.77540
O2507       O  0.94745513  0.81425011  0.36332580    -0.97500
O2508       O  0.50939533  0.85216979  0.36639709    -0.78320
Zr2509     Zr  0.88407210  0.88288151  0.34693222     2.70070
O2510       O  0.88203548  0.82229231  0.34225926    -0.79560
O2511       O  0.83470304  0.88893364  0.34790409    -0.98650
Zr2512     Zr  0.92633087  0.92783892  0.44131390     2.21500
Zr2513     Zr  0.93121452  0.92372563  0.26326640     2.11130
O2514       O  0.92546107  0.87435567  0.30723831    -2.47330
O2515       O  0.92116372  0.87702382  0.39932332    -0.79360
O2516       O  0.96984033  0.91780135  0.31069532    -0.71550
O2517       O  0.88757603  0.93210196  0.39253246    -2.32510
O2518       O  0.96783161  0.92212602  0.39920886    -2.28720
O2519       O  0.88946811  0.93177838  0.30377659    -0.73310
H2520       H  0.93714050  0.99368656  0.28452236     0.78690
H2521       H  0.87095407  0.93395822  0.41033328     0.79770
H2522       H  0.92442922  0.85494894  0.28731628     0.82000
H2523       H  0.98340205  0.92103266  0.41930925     0.79600
H2524       H  0.83680308  0.96870628  0.35114234     0.42640
H2525       H  0.83083887  0.90530891  0.32350250     0.41610
H2526       H  0.88812707  0.81467292  0.37289757     0.41290
H2527       H  0.93924596  0.81069285  0.33262480     0.39220
H2528       H  0.52036916  0.87283463  0.36986815     0.42350
H2529       H  0.52541780  0.94759140  0.38201085     0.37140
H2530       H  0.95778296  0.53642907  0.33933597     0.43250
H2531       H  0.90657550  0.54703968  0.32024145     0.39670
H2532       H  0.96454884  0.80130539  0.36257301     0.44590
H2533       H  0.52990140  0.98345007  0.36221257     0.43310
H2534       H  0.88396244  0.55064781  0.35828338     0.43450
H2535       H  0.82757335  0.86750089  0.33561917     0.43810
O2536       O  0.98411559  0.73471354  0.92453926    -0.75060
O2537       O  0.95916235  0.71147002  0.98285986    -0.53970
C2538       C  0.97904789  0.72869926  0.96678713     0.78660
O2539       O  0.86688987  0.73634469  0.79125989    -0.59670
O2540       O  0.89001965  0.70860827  0.73401890    -0.52690
C2541       C  0.87154715  0.72857792  0.74919378     0.70680
O2542       O  0.87132926  0.73679816  0.94128999    -0.74220
O2543       O  0.89554023  0.70925754  0.99538024    -0.54790
C2544       C  0.87703272  0.72985811  0.98318087     0.76680
O2545       O  0.98380758  0.72645030  0.77392184    -0.59370
O2546       O  0.95339764  0.70531265  0.72213882    -0.52490
C2547       C  0.97571742  0.72074306  0.73245975     0.73270
Zr2548     Zr  0.96496477  0.72223611  0.85171725     2.54710
O2549       O  0.95750498  0.78201147  0.84636324    -0.79930
O2550       O  0.51380311  0.73319692  0.84530495    -0.93350
Zr2551     Zr  0.88578502  0.72371408  0.86379656     2.64680
O2552       O  0.89263027  0.78361586  0.86852546    -0.98310
O2553       O  0.83653703  0.73025464  0.86719067    -0.80370
O2554       O  0.92725312  0.72561375  0.90377706    -0.83720
O2555       O  0.92360630  0.72396096  0.81181482    -2.18430
O2556       O  0.98181185  0.61528427  0.78712603    -0.67110
O2557       O  0.95532037  0.63792623  0.73115932    -0.51680
C2558       C  0.97602902  0.62156532  0.74544979     0.71660
O2559       O  0.87614490  0.60853062  0.94043275    -0.60020
O2560       O  0.90290159  0.63587953  0.99319842    -0.52000
C2561       C  0.88502712  0.61418739  0.98156107     0.73460
O2562       O  0.86151347  0.61678413  0.78409653    -0.71420
O2563       O  0.88966015  0.63827054  0.72868610    -0.50090
C2564       C  0.86818720  0.62214932  0.74156695     0.74840
O2565       O  0.97895623  0.61148671  0.93611141    -0.66750
O2566       O  0.95906294  0.64442397  0.99102841    -0.53940
C2567       C  0.97580995  0.62179074  0.97786060     0.73220
Zr2568     Zr  0.96164240  0.62317230  0.85998640     2.77540
O2569       O  0.94891990  0.56460956  0.85864884    -0.97500
O2570       O  0.50957203  0.60798076  0.86157427    -0.78320
Zr2571     Zr  0.88247623  0.62526862  0.86073053     2.70070
O2572       O  0.88404769  0.56495320  0.85176915    -0.79560
O2573       O  0.83331903  0.62373480  0.87134173    -0.98650
Zr2574     Zr  0.92626984  0.67582769  0.94750022     2.21500
Zr2575     Zr  0.92231339  0.67253519  0.77028665     2.11130
O2576       O  0.92185771  0.62227323  0.81366189    -2.47330
O2577       O  0.92265304  0.62459104  0.90608318    -0.79360
O2578       O  0.96319046  0.67106070  0.81273206    -0.71550
O2579       O  0.88414030  0.67450773  0.90698173    -2.32510
O2580       O  0.96568452  0.67413529  0.89925906    -2.28720
O2581       O  0.88297010  0.67466163  0.81813692    -0.73310
H2582       H  0.92324847  0.74288204  0.79148230     0.78690
H2583       H  0.86872191  0.67440798  0.92787963     0.79770
H2584       H  0.92133229  0.60289529  0.79361629     0.82000
H2585       H  0.98243214  0.67355757  0.91649909     0.79600
H2586       H  0.82950282  0.70779049  0.87486304     0.42640
H2587       H  0.82631936  0.64116508  0.85068067     0.41610
H2588       H  0.89461481  0.55736642  0.87864655     0.41290
H2589       H  0.95240798  0.55727065  0.82644388     0.39220
H2590       H  0.51943394  0.62956214  0.86343808     0.42350
H2591       H  0.52254329  0.71732757  0.86647142     0.37140
H2592       H  0.96069755  0.79073522  0.87799230     0.43250
H2593       H  0.90565258  0.78711897  0.89410619     0.39670
H2594       H  0.96306751  0.55366411  0.87725651     0.44590
H2595       H  0.51675228  0.75542663  0.85962877     0.43310
H2596       H  0.87512747  0.79211709  0.88091080     0.43450
H2597       H  0.82740901  0.60243447  0.85692588     0.43810
O2598       O  0.70601401  0.98063643  0.97018208    -0.75060
O2599       O  0.74344479  0.96439560  0.92834193    -0.53970
C2600       C  0.73140906  0.97693158  0.96506476     0.78660
O2601       O  0.62980454  0.86797127  0.94514946    -0.59670
O2602       O  0.59478623  0.88964889  0.90363824    -0.52690
C2603       C  0.60472854  0.87310489  0.93744603     0.70680
O2604       O  0.71710045  0.86847496  0.95217111    -0.74220
O2605       O  0.75247561  0.89582112  0.91756033    -0.54790
C2606       C  0.74246224  0.87551684  0.94830153     0.76680
O2607       O  0.62501842  0.99137752  0.94210846    -0.59370
O2608       O  0.59234699  0.95965312  0.90714318    -0.52490
C2609       C  0.60036618  0.98195840  0.93699139     0.73270
Zr2610     Zr  0.67014420  0.97851346  0.91756756     2.54710
O2611       O  0.66205150  0.99419921  0.99796464    -0.79930
O2612       O  0.67707696  0.53747631  0.90201196    -0.93350
Zr2613     Zr  0.67398034  0.88025295  0.91778314     2.64680
O2614       O  0.67515073  0.87640421  0.00147944    -0.98310
O2615       O  0.67399875  0.82000611  0.90695372    -0.80370
O2616       O  0.69793805  0.93070207  0.92003954    -0.83720
O2617       O  0.64575543  0.92800373  0.91765273    -2.18430
O2618       O  0.63162861  0.98757214  0.75836362    -0.67110
O2619       O  0.59598297  0.96239983  0.79583693    -0.51680
C2620       C  0.60645838  0.98083658  0.76418533     0.71660
O2621       O  0.72029095  0.87453000  0.75737502    -0.60020
O2622       O  0.75438727  0.89445573  0.80375008    -0.52000
C2623       C  0.74524306  0.87901975  0.76749971     0.73460
O2624       O  0.63300344  0.86657356  0.74989135    -0.71420
O2625       O  0.59707742  0.89059257  0.78734519    -0.50090
C2626       C  0.60745600  0.87264871  0.75392978     0.74840
O2627       O  0.71974397  0.98359946  0.75379280    -0.66750
O2628       O  0.75490025  0.96411945  0.79610967    -0.53940
C2629       C  0.74522833  0.97868236  0.75946697     0.73220
Zr2630     Zr  0.67563103  0.97760926  0.78872474     2.77540
O2631       O  0.67718334  0.98694667  0.70570807    -0.97500
O2632       O  0.67734507  0.53762371  0.80156367    -0.78320
Zr2633     Zr  0.67567245  0.87959155  0.78757231     2.70070
O2634       O  0.67940435  0.87015184  0.70471357    -0.79560
O2635       O  0.67738497  0.81992633  0.80107895    -0.98650
Zr2636     Zr  0.72972781  0.93122432  0.85815261     2.21500
Zr2637     Zr  0.61862651  0.92595513  0.84940245     2.11130
O2638       O  0.64926704  0.92795110  0.78477438    -2.47330
O2639       O  0.70184715  0.92914441  0.79092375    -0.79360
O2640       O  0.64381880  0.97765206  0.85044937    -0.71550
O2641       O  0.70363738  0.88009059  0.85400619    -2.32510
O2642       O  0.70235630  0.98097498  0.85614537    -2.28720
O2643       O  0.64612065  0.87671766  0.85148162    -0.73310
H2644       H  0.63461630  0.92829690  0.94522886     0.78690
H2645       H  0.71531412  0.86081694  0.85439435     0.79770
H2646       H  0.63962239  0.92762851  0.75585780     0.82000
H2647       H  0.71349134  0.00090440  0.85716174     0.79600
H2648       H  0.69343210  0.81407486  0.90307973     0.42640
H2649       H  0.65836721  0.81353362  0.80865378     0.41610
H2650       H  0.67912456  0.89276449  0.69136904     0.41290
H2651       H  0.66493822  0.96985218  0.69204457     0.39220
H2652       H  0.65803535  0.54462765  0.80178139     0.42350
H2653       H  0.69266987  0.54409146  0.92168277     0.37140
H2654       H  0.65692912  0.97313066  0.01342563     0.43250
H2655       H  0.66077137  0.89173376  0.01265898     0.39670
H2656       H  0.66793937  0.00845785  0.70080051     0.44590
H2657       H  0.66117490  0.54858722  0.91649685     0.43310
H2658       H  0.66813298  0.85375807  0.00805517     0.43450
H2659       H  0.68067588  0.81004803  0.77008984     0.43810
C2660       C  0.67788375  0.67391152  0.86149591    -0.02260
C2661       C  0.67728662  0.93006497  0.35262377    -0.02260
C2662       C  0.93215625  0.67756797  0.35333175    -0.02260
O2663       O  0.99044117  0.61555721  0.67047956    -0.75060
O2664       O  0.51503537  0.59184160  0.72811021    -0.53970
C2665       C  0.49507991  0.60895537  0.71251592     0.78660
O2666       O  0.99022678  0.49191243  0.53860847    -0.59670
O2667       O  0.51764687  0.51479749  0.48300520    -0.52690
C2668       C  0.99712618  0.49729720  0.49712037     0.70680
O2669       O  0.99442371  0.49105513  0.68615563    -0.74220
O2670       O  0.51744584  0.52100091  0.74046153    -0.54790
C2671       C  0.49988011  0.49867543  0.72819473     0.76680
O2672       O  0.00094230  0.61883001  0.52221466    -0.59370
O2673       O  0.52204115  0.58495853  0.46964869    -0.52490
C2674       C  0.50515792  0.60824691  0.48075348     0.73270
Zr2675     Zr  0.51440693  0.60617022  0.60079424     2.54710
O2676       O  0.96647276  0.61950289  0.59120409    -0.79930
O2677       O  0.52534561  0.66533383  0.60593015    -0.93350
Zr2678     Zr  0.50824668  0.50789922  0.60977882     2.64680
O2679       O  0.95916385  0.51541534  0.61668301    -0.98310
O2680       O  0.50556255  0.94740509  0.60890409    -0.80370
O2681       O  0.50969831  0.55881524  0.64934253    -0.83720
O2682       O  0.51092561  0.55520879  0.56126339    -2.18430
O2683       O  0.61102448  0.61241481  0.53650340    -0.67110
O2684       O  0.58579820  0.58607551  0.48070010    -0.51680
C2685       C  0.60539565  0.60514471  0.49478481     0.71660
O2686       O  0.59756779  0.48859412  0.68744892    -0.60020
O2687       O  0.57163951  0.51569785  0.74196631    -0.52000
C2688       C  0.58993735  0.49506193  0.72929285     0.73460
O2689       O  0.60685625  0.48831230  0.52791455    -0.71420
O2690       O  0.58189473  0.51462485  0.47297742    -0.50090
C2691       C  0.60148436  0.49554896  0.48534780     0.74840
O2692       O  0.60970467  0.60916985  0.68607313    -0.66750
O2693       O  0.58238072  0.58744591  0.74158106    -0.53940
C2694       C  0.60354897  0.60423959  0.72844788     0.73220
Zr2695     Zr  0.59297268  0.59858132  0.60957367     2.77540
O2696       O  0.64259695  0.59716696  0.61232290    -0.97500
O2697       O  0.59216428  0.65921970  0.61273350    -0.78320
Zr2698     Zr  0.58794521  0.50006482  0.60670032     2.70070
O2699       O  0.63681323  0.49139074  0.61248949    -0.79560
O2700       O  0.58013785  0.94010382  0.60417657    -0.98650
Zr2701     Zr  0.54899991  0.55535377  0.69585295     2.21500
Zr2702     Zr  0.55178403  0.55092084  0.51743965     2.11130
O2703       O  0.59157302  0.54925720  0.56400649    -2.47330
O2704       O  0.59028076  0.54952959  0.65282706    -0.79360
O2705       O  0.55522264  0.60232381  0.55875320    -0.71550
O2706       O  0.54795862  0.50428224  0.65300844    -2.32510
O2707       O  0.55230028  0.60513399  0.65185279    -2.28720
O2708       O  0.54785055  0.50154144  0.56225251    -0.73310
H2709       H  0.99500710  0.55600845  0.54191948     0.78690
H2710       H  0.54644607  0.98515703  0.67282195     0.79770
H2711       H  0.60797582  0.54845890  0.54549180     0.82000
H2712       H  0.55295845  0.62470796  0.67151683     0.79600
H2713       H  0.52156960  0.94016466  0.62672996     0.42640
H2714       H  0.57252497  0.93565086  0.57312304     0.41610
H2715       H  0.64464558  0.51415912  0.61430654     0.41290
H2716       H  0.64813469  0.58150655  0.58739847     0.39220
H2717       H  0.58373482  0.66587288  0.58328815     0.42350
H2718       H  0.52322604  0.67097036  0.63910225     0.37140
H2719       H  0.95715119  0.59756228  0.58972091     0.43250
H2720       H  0.95420092  0.52944795  0.59015129     0.39670
H2721       H  0.64872117  0.61935229  0.60161611     0.44590
H2722       H  0.00984079  0.67646184  0.59092046     0.43310
H2723       H  0.95125071  0.49323783  0.60939174     0.43450
H2724       H  0.59861566  0.93036870  0.60297449     0.43810
O2725       O  0.99291161  0.85848505  0.02358277    -0.75060
O2726       O  0.51641281  0.82917466  0.96895320    -0.53970
C2727       C  0.49733253  0.84900012  0.98169372     0.78660
O2728       O  0.61257069  0.86361815  0.17368667    -0.59670
O2729       O  0.58834851  0.83992379  0.23212647    -0.52690
C2730       C  0.60856667  0.85729032  0.21703640     0.70680
O2731       O  0.59660694  0.86629873  0.01468719    -0.74220
O2732       O  0.56989747  0.83813649  0.96271680    -0.54790
C2733       C  0.58813952  0.85949601  0.97347588     0.76680
O2734       O  0.99318854  0.85605583  0.17371693    -0.59370
O2735       O  0.52281130  0.84021865  0.22971327    -0.52490
C2736       C  0.50056711  0.85308381  0.21541268     0.73270
Zr2737     Zr  0.51282795  0.85164490  0.09990345     2.54710
O2738       O  0.52230682  0.91114595  0.10047383    -0.79930
O2739       O  0.96512557  0.86815048  0.10466743    -0.93350
Zr2740     Zr  0.59181196  0.85395713  0.09677507     2.64680
O2741       O  0.58958443  0.91454134  0.10028878    -0.98310
O2742       O  0.64086758  0.85817983  0.08635820    -0.80370
O2743       O  0.55133758  0.85146222  0.05253888    -0.83720
O2744       O  0.55309601  0.85561694  0.14523014    -2.18430
O2745       O  0.99897229  0.74358456  0.19077677    -0.67110
O2746       O  0.52587504  0.77301092  0.24072135    -0.51680
C2747       C  0.50612466  0.75272329  0.23156092     0.71660
O2748       O  0.60770535  0.74111702  0.02100519    -0.60020
O2749       O  0.58199164  0.76642709  0.96684304    -0.52000
C2750       C  0.60214543  0.74813850  0.97914422     0.73460
O2751       O  0.61364933  0.74588531  0.16887763    -0.71420
O2752       O  0.58939370  0.77161552  0.22635268    -0.50090
C2753       C  0.60875381  0.75302415  0.21092075     0.74840
O2754       O  0.99293521  0.73686680  0.04111964    -0.66750
O2755       O  0.51706141  0.76058911  0.98205481    -0.53940
C2756       C  0.49768635  0.74272352  0.99870650     0.73220
Zr2757     Zr  0.51327749  0.75292815  0.11151436     2.77540
O2758       O  0.51758516  0.69261153  0.11485339    -0.97500
O2759       O  0.96388503  0.75078202  0.11933223    -0.78320
Zr2760     Zr  0.59242236  0.75497704  0.09752518     2.70070
O2761       O  0.58761550  0.69468980  0.10207754    -0.79560
O2762       O  0.64166688  0.75058890  0.08762778    -0.98650
Zr2763     Zr  0.54944564  0.79900123  0.01325554     2.21500
Zr2764     Zr  0.55556417  0.80597687  0.19037847     2.11130
O2765       O  0.55513127  0.75399913  0.15032431    -2.47330
O2766       O  0.55067838  0.74998462  0.05854337    -0.79360
O2767       O  0.51415401  0.80464069  0.14903476    -0.71550
O2768       O  0.59166904  0.80357697  0.05293319    -2.32510
O2769       O  0.51041455  0.79985309  0.06226698    -2.28720
O2770       O  0.59419874  0.80526713  0.14091189    -0.73310
H2771       H  0.55310738  0.87536717  0.16458193     0.78690
H2772       H  0.60696925  0.80407764  0.03181105     0.79770
H2773       H  0.55637220  0.73547399  0.17121844     0.82000
H2774       H  0.99350208  0.79891446  0.04550043     0.79600
H2775       H  0.64747973  0.83521135  0.09095739     0.42640
H2776       H  0.64957109  0.76774097  0.10849647     0.41610
H2777       H  0.57527158  0.68857208  0.07640625     0.41290
H2778       H  0.52502039  0.68816954  0.14586609     0.39220
H2779       H  0.95835774  0.77444465  0.12111357     0.42350
H2780       H  0.95495907  0.85092315  0.08697936     0.37140
H2781       H  0.51270173  0.91941180  0.07294546     0.43250
H2782       H  0.58545681  0.91994524  0.13301589     0.39670
H2783       H  0.99856969  0.68426289  0.11631972     0.44590
H2784       H  0.96370594  0.88865741  0.08615487     0.43310
H2785       H  0.60866699  0.92205368  0.09577833     0.43450
H2786       H  0.64666926  0.72901289  0.10138355     0.43810
O2787       O  0.85509551  0.99653238  0.00627115    -0.75060
O2788       O  0.88872429  0.52276574  0.04652598    -0.53970
C2789       C  0.87986586  0.50543389  0.01142197     0.78660
O2790       O  0.76316826  0.60534726  0.00596809    -0.59670
O2791       O  0.72735678  0.57967898  0.04109755    -0.52690
C2792       C  0.73766643  0.59864901  0.00904747     0.70680
O2793       O  0.85041734  0.57997213  0.00767598    -0.74220
O2794       O  0.88380149  0.59150660  0.05692855    -0.54790
C2795       C  0.87272074  0.59475557  0.01742428     0.76680
O2796       O  0.77240785  0.98168023  0.00100698    -0.59370
O2797       O  0.73624839  0.50761575  0.03630469    -0.52490
C2798       C  0.74747828  0.48916383  0.00390845     0.73270
Zr2799     Zr  0.81102229  0.50042415  0.03992479     2.54710
O2800       O  0.81029821  0.49764159  0.95598498    -0.79930
O2801       O  0.81793263  0.94087744  0.04668460    -0.93350
Zr2802     Zr  0.80750047  0.59805886  0.03955392     2.64680
O2803       O  0.81251245  0.62073392  0.96237602    -0.98310
O2804       O  0.81494722  0.65722433  0.05351697    -0.80370
O2805       O  0.83505384  0.55042368  0.04155185    -0.83720
O2806       O  0.78239674  0.54774536  0.03694873    -2.18430
O2807       O  0.76305720  0.99137023  0.20473871    -0.67110
O2808       O  0.72759159  0.51285338  0.16500531    -0.51680
C2809       C  0.73759246  0.49675212  0.20017897     0.71660
O2810       O  0.84615594  0.60793388  0.21181539    -0.60020
O2811       O  0.88262924  0.58666258  0.17260110    -0.52000
C2812       C  0.87177987  0.60271974  0.20726046     0.73460
O2813       O  0.75885701  0.60780886  0.19649915    -0.71420
O2814       O  0.72541547  0.58171816  0.15448112    -0.50090
C2815       C  0.73404876  0.60031588  0.18819534     0.74840
O2816       O  0.85054824  0.99553400  0.20159103    -0.66750
O2817       O  0.88632860  0.51622240  0.15970938    -0.53940
C2818       C  0.87586559  0.50035048  0.19377646     0.73220
Zr2819     Zr  0.80646510  0.50113009  0.16918227     2.77540
O2820       O  0.81118939  0.48361870  0.24913171    -0.97500
O2821       O  0.80419633  0.94310207  0.14603373    -0.78320
Zr2822     Zr  0.80435113  0.59927757  0.16998717     2.70070
O2823       O  0.79959609  0.61036082  0.25239268    -0.79560
O2824       O  0.80492579  0.65891355  0.15545363    -0.98650
Zr2825     Zr  0.86243821  0.55271527  0.10878599     2.21500
Zr2826     Zr  0.75130527  0.54565611  0.10089551     2.11130
O2827       O  0.77926073  0.54900826  0.16862345    -2.47330
O2828       O  0.83162624  0.55139885  0.17269830    -0.79360
O2829       O  0.77958979  0.49696432  0.10221358    -0.71550
O2830       O  0.83458050  0.60219865  0.10685523    -2.32510
O2831       O  0.83757426  0.50101346  0.10698218    -2.28720
O2832       O  0.77700354  0.59733122  0.10288524    -0.73310
H2833       H  0.77308814  0.54673103  0.00775227     0.78690
H2834       H  0.84551178  0.62229538  0.10788700     0.79770
H2835       H  0.76849081  0.54933808  0.19652451     0.82000
H2836       H  0.84976268  0.98227148  0.10798470     0.79600
H2837       H  0.82946180  0.66316352  0.03113311     0.42640
H2838       H  0.78641438  0.66379281  0.14404721     0.41610
H2839       H  0.79880881  0.58799150  0.26647568     0.41290
H2840       H  0.79851274  0.49755192  0.26761861     0.39220
H2841       H  0.78490114  0.93690975  0.15159414     0.42350
H2842       H  0.83426394  0.93822451  0.06607975     0.37140
H2843       H  0.80847429  0.52110982  0.94630563     0.43250
H2844       H  0.80138329  0.60586398  0.94244808     0.39670
H2845       H  0.80356669  0.96075056  0.25023948     0.44590
H2846       H  0.82426594  0.93420420  0.01543285     0.43310
H2847       H  0.80277943  0.64224092  0.96297088     0.43450
H2848       H  0.80549730  0.66935113  0.18656273     0.43810
C2849       C  0.80164417  0.80666775  0.09987136    -0.02260
C2850       C  0.54660814  0.79902025  0.60699153    -0.02260
O2851       O  0.62233530  0.73692724  0.43400689    -0.75060
O2852       O  0.64605208  0.70944797  0.48849583    -0.53970
C2853       C  0.62704707  0.73008706  0.47643724     0.78660
O2854       O  0.61739189  0.61341817  0.26886385    -0.59670
O2855       O  0.64185157  0.64116143  0.21405246    -0.52690
C2856       C  0.62267936  0.62084257  0.22657286     0.70680
O2857       O  0.61689120  0.61358588  0.41913967    -0.74220
O2858       O  0.64325734  0.63781689  0.47537529    -0.54790
C2859       C  0.62306367  0.61983073  0.46096050     0.76680
O2860       O  0.62171525  0.74430656  0.28559840    -0.59370
O2861       O  0.64340121  0.71585133  0.22731336    -0.52490
C2862       C  0.62606262  0.73708552  0.24333874     0.73270
Zr2863     Zr  0.63860753  0.72475014  0.35625320     2.54710
O2864       O  0.58904394  0.72663929  0.35829727    -0.79930
O2865       O  0.64467184  0.78497909  0.36127674    -0.93350
Zr2866     Zr  0.63504842  0.62672863  0.34587919     2.64680
O2867       O  0.58538067  0.62620032  0.34825905    -0.98310
O2868       O  0.63898567  0.56625215  0.34370994    -0.80370
O2869       O  0.63705066  0.67429731  0.39579577    -0.83720
O2870       O  0.63512392  0.67734674  0.30617693    -2.18430
O2871       O  0.73141584  0.73766235  0.26868006    -0.67110
O2872       O  0.70736044  0.71008029  0.21310117    -0.51680
C2873       C  0.72597645  0.73116641  0.22604786     0.71660
O2874       O  0.73158458  0.60742171  0.42469670    -0.60020
O2875       O  0.70971372  0.63723913  0.48136722    -0.52000
C2876       C  0.72763362  0.61561974  0.46776030     0.73460
O2877       O  0.72267506  0.60763605  0.26518580    -0.71420
O2878       O  0.69847599  0.63576198  0.21075213    -0.50090
C2879       C  0.71600034  0.61418655  0.22309780     0.74840
O2880       O  0.73718013  0.73414623  0.42019642    -0.66750
O2881       O  0.71188616  0.70911046  0.47695593    -0.53940
C2882       C  0.73159930  0.72790072  0.46244995     0.73220
Zr2883     Zr  0.71796435  0.72094751  0.34642495     2.77540
O2884       O  0.76753162  0.71886070  0.34221783    -0.97500
O2885       O  0.71631207  0.78152327  0.34981782    -0.78320
Zr2886     Zr  0.71444698  0.62249824  0.34658836     2.70070
O2887       O  0.76386885  0.62077929  0.33994943    -0.79560
O2888       O  0.71043083  0.56200770  0.34812929    -0.98650
Zr2889     Zr  0.67751585  0.67350833  0.44043913     2.21500
Zr2890     Zr  0.67470581  0.67558933  0.25812902     2.11130
O2891       O  0.71608425  0.67179795  0.30124148    -2.47330
O2892       O  0.71685177  0.67184041  0.39149498    -0.79360
O2893       O  0.67690460  0.72470876  0.30517595    -0.71550
O2894       O  0.67472941  0.62387582  0.39312964    -2.32510
O2895       O  0.67963667  0.72383966  0.39748423    -2.28720
O2896       O  0.67461192  0.62474088  0.30035955    -0.73310
H2897       H  0.61864482  0.67846578  0.28823939     0.78690
H2898       H  0.67403252  0.60425478  0.41214942     0.79770
H2899       H  0.73167918  0.67103735  0.28074353     0.82000
H2900       H  0.68088551  0.74307728  0.41768689     0.79600
H2901       H  0.64343934  0.55990102  0.37571800     0.42640
H2902       H  0.69691703  0.55644784  0.32396283     0.41610
H2903       H  0.77011539  0.64224002  0.35345839     0.41290
H2904       H  0.77164822  0.70467901  0.31491659     0.39220
H2905       H  0.70215688  0.78761942  0.32727354     0.42350
H2906       H  0.65111584  0.78944876  0.39307526     0.37140
H2907       H  0.58336478  0.70379239  0.36684037     0.43250
H2908       H  0.57973238  0.64237884  0.32464879     0.39670
H2909       H  0.77321855  0.74156995  0.33302122     0.44590
H2910       H  0.62591605  0.79390374  0.36094787     0.43310
H2911       H  0.57996760  0.60416624  0.33552052     0.43450
H2912       H  0.72796831  0.55390102  0.33536231     0.43810
O2913       O  0.85877738  0.73671738  0.67407774    -0.75060
O2914       O  0.83618344  0.76439305  0.73202414    -0.53970
C2915       C  0.85432285  0.74418380  0.71631174     0.78660
O2916       O  0.85935597  0.86631023  0.53723070    -0.59670
O2917       O  0.83399416  0.84003961  0.48131177    -0.52690
C2918       C  0.85330050  0.85968411  0.49540927     0.70680
O2919       O  0.85854218  0.86801350  0.68771922    -0.74220
O2920       O  0.83646981  0.83716122  0.74213739    -0.54790
C2921       C  0.85372249  0.85999563  0.72999066     0.76680
O2922       O  0.85466021  0.73785498  0.52382723    -0.59370
O2923       O  0.83227053  0.76651489  0.46891914    -0.52490
C2924       C  0.85059289  0.74514689  0.48127929     0.73270
Zr2925     Zr  0.83951146  0.75103075  0.60221535     2.54710
O2926       O  0.88870176  0.74426870  0.59700386    -0.79930
O2927       O  0.83163754  0.69103507  0.60056909    -0.93350
Zr2928     Zr  0.84412058  0.84890566  0.61080615     2.64680
O2929       O  0.89330231  0.84122851  0.61260096    -0.98310
O2930       O  0.84582160  0.90936567  0.61455311    -0.80370
O2931       O  0.84343682  0.79877687  0.65161927    -0.83720
O2932       O  0.84178327  0.80105603  0.56143569    -2.18430
O2933       O  0.74351443  0.73793910  0.53885547    -0.67110
O2934       O  0.76776542  0.76433080  0.48189409    -0.51680
C2935       C  0.74890620  0.74431575  0.49654913     0.71660
O2936       O  0.75563195  0.86928547  0.69071732    -0.60020
O2937       O  0.78049396  0.84274724  0.74576099    -0.52000
C2938       C  0.76274939  0.86389902  0.73290089     0.73460
O2939       O  0.74707333  0.86759294  0.53177666    -0.71420
O2940       O  0.76849767  0.83795164  0.47470983    -0.50090
C2941       C  0.75062059  0.85959059  0.48859559     0.74840
O2942       O  0.74674888  0.73839524  0.69076120    -0.66750
O2943       O  0.77122575  0.76777976  0.74430690    -0.53940
C2944       C  0.75272114  0.74612963  0.73280533     0.73220
Zr2945     Zr  0.76018066  0.75560378  0.61285767     2.77540
O2946       O  0.71093645  0.76246195  0.61714782    -0.97500
O2947       O  0.75813953  0.69512914  0.61570215    -0.78320
Zr2948     Zr  0.76430393  0.85378635  0.60992569     2.70070
O2949       O  0.71489284  0.85647063  0.61604852    -0.79560
O2950       O  0.76856456  0.91424328  0.60817320    -0.98650
Zr2951     Zr  0.80383951  0.80199275  0.69915617     2.21500
Zr2952     Zr  0.80097225  0.80232249  0.51699177     2.11130
O2953       O  0.76147779  0.80405337  0.56614630    -2.47330
O2954       O  0.76227827  0.80532156  0.65690167    -0.79360
O2955       O  0.79838691  0.75232373  0.56122375    -0.71550
O2956       O  0.80438846  0.85189762  0.65520230    -2.32510
O2957       O  0.80140518  0.75210914  0.65356580    -2.28720
O2958       O  0.80422921  0.85200520  0.56385528    -0.73310
H2959       H  0.85772821  0.80059046  0.54174752     0.78690
H2960       H  0.80572785  0.87148902  0.67468637     0.79770
H2961       H  0.74508801  0.80448390  0.54791613     0.82000
H2962       H  0.80129866  0.73262694  0.67287127     0.79600
H2963       H  0.82678853  0.91615622  0.62079314     0.42640
H2964       H  0.77741501  0.91905255  0.57812578     0.41610
H2965       H  0.70960401  0.83572679  0.63209123     0.41290
H2966       H  0.70612604  0.77498562  0.58911573     0.39220
H2967       H  0.77689015  0.68818368  0.62319048     0.42350
H2968       H  0.83012471  0.68458215  0.63340042     0.37140
H2969       H  0.89627268  0.76591069  0.60769220     0.43250
H2970       H  0.89781942  0.82951496  0.58331760     0.39670
H2971       H  0.70343283  0.73981342  0.61169177     0.44590
H2972       H  0.84921362  0.68153277  0.59008105     0.43310
H2973       H  0.90099196  0.86390914  0.60880763     0.43450
H2974       H  0.74965444  0.92225918  0.60477228     0.43810
C2975       C  0.80198808  0.54898066  0.60340754    -0.02260
C2976       C  0.54932931  0.54871889  0.09639310    -0.02260
C2977       C  0.61593991  0.58505807  0.15503615    -0.21080
C2978       C  0.60491376  0.60478522  0.19073444    -0.09120
C2979       C  0.57641359  0.60624287  0.19494174     0.29740
C2980       C  0.55948443  0.58903364  0.16376822    -0.21080
C2981       C  0.57005557  0.56898560  0.12734631    -0.09130
C2982       C  0.59902720  0.56664417  0.12465497     0.29740
F2983       F  0.61155829  0.54528152  0.09503790    -0.19660
H2984       H  0.63784247  0.58242838  0.15218187     0.18110
H2985       H  0.53766307  0.59121773  0.16836747     0.18120
F2986       F  0.56479173  0.62440308  0.22952186    -0.19640
C2987       C  0.77414596  0.60151717  0.57357690    -0.21080
C2988       C  0.78013417  0.56693547  0.57128556    -0.09120
C2989       C  0.76792971  0.54921989  0.53343473     0.29740
C2990       C  0.75126047  0.56498876  0.50073458    -0.21080
C2991       C  0.74513629  0.59903024  0.50399432    -0.09130
C2992       C  0.75668574  0.61698876  0.54130214     0.29740
F2993       F  0.75223207  0.65017695  0.54516564    -0.19660
H2994       H  0.78333992  0.61733951  0.59950665     0.18110
H2995       H  0.74287471  0.55022043  0.47265360     0.18120
F2996       F  0.77223738  0.51605726  0.52766322    -0.19640
C2997       C  0.60892693  0.74251504  0.55955638    -0.21080
C2998       C  0.60845598  0.74781638  0.51152795    -0.09120
C2999       C  0.58980806  0.77200270  0.49632843     0.29740
C3000       C  0.57165228  0.78803136  0.52670151    -0.21080
C3001       C  0.56931496  0.78061192  0.57456441    -0.09130
C3002       C  0.59073785  0.75941546  0.59051293     0.29740
F3003       F  0.59734887  0.75843922  0.63568266    -0.19660
H3004       H  0.62421707  0.72625038  0.57365392     0.18110
H3005       H  0.56019430  0.80771625  0.51118630     0.18120
F3006       F  0.58922805  0.78151873  0.45147353    -0.19640
C3007       C  0.76786326  0.75638849  0.11805185    -0.21080
C3008       C  0.78056320  0.78692955  0.13230212    -0.09120
C3009       C  0.77224509  0.79872041  0.17689976     0.29740
C3010       C  0.75418866  0.78078254  0.20494306    -0.21080
C3011       C  0.74281538  0.75020582  0.19123491    -0.09130
C3012       C  0.74955389  0.73835567  0.14674188     0.29740
F3013       F  0.73941068  0.70874019  0.13148246    -0.19660
H3014       H  0.77279039  0.74545978  0.08476600     0.18110
H3015       H  0.74918184  0.79122461  0.23858132     0.18120
F3016       F  0.78099764  0.82767084  0.19558363    -0.19640
C3017       C  0.92997952  0.64413734  0.27402260    -0.21080
C3018       C  0.91743373  0.65390696  0.31673472    -0.09120
C3019       C  0.89076731  0.64094188  0.32412132     0.29740
C3020       C  0.87677236  0.62374279  0.28894500    -0.21080
C3021       C  0.88884925  0.61700594  0.24554651    -0.09130
C3022       C  0.91613105  0.62611514  0.23943449     0.29740
F3023       F  0.92928735  0.61894570  0.19920523    -0.19660
H3024       H  0.95052953  0.65045233  0.26522909     0.18110
H3025       H  0.85604833  0.61570512  0.29590014     0.18120
F3026       F  0.87774682  0.64440990  0.36530901    -0.19640
C3027       C  0.97810311  0.68758829  0.31064727    -0.21080
C3028       C  0.95278716  0.70116844  0.32636546    -0.09120
C3029       C  0.94893131  0.73540950  0.31684913     0.29740
C3030       C  0.96711676  0.75282590  0.28768565    -0.21080
C3031       C  0.99049868  0.73753976  0.26966739    -0.09130
C3032       C  0.49617477  0.70501609  0.28237093     0.29740
F3033       F  0.51851030  0.68927826  0.26515665    -0.19660
H3034       H  0.98346870  0.66208123  0.31794647     0.18110
H3035       H  0.96256320  0.77812634  0.27792426     0.18120
F3036       F  0.92810746  0.75273628  0.33528926    -0.19640
C3037       C  0.95363695  0.62235659  0.38502042    -0.21080
C3038       C  0.95134406  0.65750165  0.38581359    -0.09120
C3039       C  0.96869933  0.67548453  0.41650749     0.29740
C3040       C  0.98678609  0.65917509  0.44530670    -0.21080
C3041       C  0.98879120  0.62446730  0.44457963    -0.09130
C3042       C  0.97214507  0.60608742  0.41410668     0.29740
F3043       F  0.47266592  0.57233822  0.41450745    -0.19660
H3044       H  0.94101495  0.60723233  0.36252584     0.18110
H3045       H  0.99903558  0.67383554  0.46909610     0.18120
F3046       F  0.96758437  0.70924235  0.41947971    -0.19640
C3047       C  0.90786080  0.68950358  0.43327319    -0.21080
C3048       C  0.90979664  0.69613276  0.38523576    -0.09120
C3049       C  0.88825053  0.71630230  0.36807509     0.29740
C3050       C  0.86923974  0.73262875  0.39825406    -0.21080
C3051       C  0.86942926  0.72753892  0.44652769    -0.09130
C3052       C  0.88874172  0.70448884  0.46268719     0.29740
F3053       F  0.88932060  0.69534812  0.50769505    -0.19660
H3054       H  0.92053939  0.67136658  0.44969145     0.18110
H3055       H  0.85411231  0.74885029  0.38360272     0.18120
F3056       F  0.88514411  0.71983614  0.32183763    -0.19640
C3057       C  0.66808197  0.90559706  0.26918970    -0.21080
C3058       C  0.66288179  0.90476532  0.31763736    -0.09120
C3059       C  0.64397389  0.87996316  0.33179217     0.29740
C3060       C  0.62634156  0.86444868  0.29940831    -0.21080
C3061       C  0.62862725  0.87096201  0.25160528    -0.09130
C3062       C  0.65104519  0.89008310  0.23707842     0.29740
F3063       F  0.65661898  0.89449522  0.19155062    -0.19660
H3064       H  0.68518124  0.91882350  0.25454598     0.18110
H3065       H  0.61055233  0.84784005  0.31198327     0.18120
F3066       F  0.64081856  0.87291161  0.37727015    -0.19640
C3067       C  0.73494932  0.96352279  0.27340375    -0.21080
C3068       C  0.72107190  0.98334548  0.24090779    -0.09120
C3069       C  0.69379113  0.99110684  0.25160690     0.29740
C3070       C  0.68081389  0.97730795  0.29129376    -0.21080
C3071       C  0.69441709  0.95487043  0.32150275    -0.09130
C3072       C  0.72248390  0.95032823  0.31277821     0.29740
F3073       F  0.73836487  0.93180678  0.34048282    -0.19660
H3074       H  0.75612942  0.95721342  0.26838616     0.18110
H3075       H  0.65926522  0.98184585  0.29616022     0.18120
F3076       F  0.67940698  0.01112479  0.22342073    -0.19640
C3077       C  0.62705840  0.94380682  0.38268823    -0.21080
C3078       C  0.65538950  0.95160638  0.38069219    -0.09120
C3079       C  0.66320588  0.98035915  0.40679067     0.29740
C3080       C  0.64598304  0.99391704  0.44129195    -0.21080
C3081       C  0.61940758  0.98167419  0.44794101    -0.09130
C3082       C  0.60960238  0.95800446  0.41618510     0.29740
F3083       F  0.58313232  0.94803960  0.41802268    -0.19660
H3084       H  0.61754030  0.92685135  0.35882304     0.18110
H3085       H  0.65346938  0.51414730  0.46286823     0.18120
F3086       F  0.68841738  0.99402801  0.40152774    -0.19640
C3087       C  0.70220925  0.92279651  0.43333759    -0.21080
C3088       C  0.69595384  0.90998411  0.38852018    -0.09120
C3089       C  0.70906041  0.87907826  0.37754603     0.29740
C3090       C  0.72681540  0.86307726  0.40917490    -0.21080
C3091       C  0.73248894  0.87668550  0.45333449    -0.09130
C3092       C  0.71977593  0.90702716  0.46436108     0.29740
F3093       F  0.72469601  0.92244203  0.50546520    -0.19660
H3094       H  0.69393501  0.94542230  0.44660732     0.18110
H3095       H  0.73613724  0.83976490  0.39891457     0.18120
F3096       F  0.70581815  0.86454013  0.33546147    -0.19640
C3097       C  0.61918780  0.61582684  0.81040280    -0.21080
C3098       C  0.62263288  0.61964267  0.76278759    -0.09120
C3099       C  0.64411544  0.64027331  0.74763619     0.29740
C3100       C  0.66112402  0.65650003  0.77883749    -0.21080
C3101       C  0.65927176  0.65216642  0.82738349    -0.09130
C3102       C  0.63648689  0.63223340  0.84210180     0.29740
F3103       F  0.62733899  0.63260908  0.88602506    -0.19660
H3104       H  0.60205020  0.60152620  0.82344873     0.18110
H3105       H  0.67433984  0.67455753  0.76298941     0.18120
F3106       F  0.64827408  0.64669003  0.70214518    -0.19640
C3107       C  0.63253362  0.70679257  0.87238019    -0.21080
C3108       C  0.65879353  0.69798130  0.88873761    -0.09120
C3109       C  0.66714799  0.71247927  0.93104297     0.29740
C3110       C  0.64874053  0.72998034  0.95857858    -0.21080
C3111       C  0.62163943  0.73460318  0.94474542    -0.09130
C3112       C  0.61402185  0.72439739  0.90031571     0.29740
F3113       F  0.58842475  0.72985972  0.88476504    -0.19660
H3114       H  0.62575002  0.69935709  0.83834625     0.18110
H3115       H  0.65568957  0.73944086  0.99166862     0.18120
F3116       F  0.69312219  0.70975999  0.94623572    -0.19640
C3117       C  0.67925440  0.63305154  0.93360309    -0.21080
C3118       C  0.69342728  0.65129501  0.89842653    -0.09120
C3119       C  0.72225598  0.65230858  0.90445171     0.29740
C3120       C  0.73520560  0.63367760  0.93809791    -0.21080
C3121       C  0.72105513  0.61487206  0.97145288    -0.09130
C3122       C  0.69256048  0.61480879  0.96859824     0.29740
F3123       F  0.67736917  0.59880597  0.00091133    -0.19660
H3124       H  0.65783653  0.63553583  0.93850422     0.18110
H3125       H  0.75710942  0.63607592  0.93918038     0.18120
F3126       F  0.73880839  0.67457624  0.88327836    -0.19640
C3127       C  0.71964072  0.74659085  0.79999490    -0.21080
C3128       C  0.73660917  0.72870207  0.76966937    -0.09120
C3129       C  0.73553530  0.69376277  0.77120145     0.29740
C3130       C  0.71783167  0.67729856  0.80198071    -0.21080
C3131       C  0.69931315  0.69475445  0.83147965    -0.09130
C3132       C  0.70099767  0.73032804  0.82970906     0.29740
F3133       F  0.68438505  0.75024913  0.85507188    -0.19660
H3134       H  0.71988833  0.77354768  0.79912623     0.18110
H3135       H  0.71771998  0.65030884  0.80175704     0.18120
F3136       F  0.75149062  0.67535331  0.74238091    -0.19640
C3137       C  0.58784759  0.83347240  0.63752753    -0.21080
C3138       C  0.56106095  0.82159577  0.64458579    -0.09120
C3139       C  0.54817501  0.83179943  0.68686070     0.29740
C3140       C  0.56267787  0.84910474  0.72185274    -0.21080
C3141       C  0.59017498  0.85786562  0.71575472    -0.09130
C3142       C  0.60208324  0.85093614  0.67203479     0.29740
F3143       F  0.62781692  0.86122913  0.66201418    -0.19660
H3144       H  0.59825887  0.82921415  0.60500505     0.18110
H3145       H  0.55246528  0.85501323  0.75413940     0.18120
F3146       F  0.52142679  0.82540973  0.69487252    -0.19640
C3147       C  0.57704660  0.54677972  0.02173519    -0.21080
C3148       C  0.56314995  0.52827001  0.05604054    -0.09120
C3149       C  0.55783389  0.99404826  0.04523370     0.29740
C3150       C  0.56760461  0.97933463  0.00388751    -0.21080
C3151       C  0.58186479  0.99819990  0.97107866    -0.09130
C3152       C  0.58580525  0.53236461  0.98021667     0.29740
F3153       F  0.59957601  0.55168777  0.94956537    -0.19660
H3154       H  0.58065837  0.57320238  0.02691906     0.18110
H3155       H  0.56481983  0.95280429  0.99830140     0.18120
F3156       F  0.54222650  0.97463557  0.07272270    -0.19640
C3157       C  0.78147440  0.87400898  0.00596729    -0.21080
C3158       C  0.75969906  0.85830048  0.98351183    -0.09120
C3159       C  0.75143790  0.82686266  0.99996213     0.29740
C3160       C  0.76384243  0.81233113  0.03815930    -0.21080
C3161       C  0.78536832  0.82783109  0.06274340    -0.09130
C3162       C  0.79440131  0.85913207  0.04413469     0.29740
F3163       F  0.81750953  0.87420423  0.05906883    -0.19660
H3164       H  0.78850865  0.89795478  0.99381933     0.18110
H3165       H  0.75645770  0.78804426  0.04699237     0.18120
F3166       F  0.73117801  0.80951787  0.97860628    -0.19640
C3167       C  0.74800374  0.99986188  0.67808671    -0.21080
C3168       C  0.76223094  0.99132214  0.71859960    -0.09120
C3169       C  0.79056952  0.99708592  0.71773699     0.29740
C3170       C  0.80329992  0.51233933  0.67870731    -0.21080
C3171       C  0.78821156  0.52439168  0.64004391    -0.09130
C3172       C  0.76002025  0.51660435  0.64095126     0.29740
F3173       F  0.74284149  0.52541906  0.60701585    -0.19660
H3174       H  0.72643271  0.99478624  0.67515702     0.18110
H3175       H  0.82505989  0.51670918  0.68017162     0.18120
F3176       F  0.80584960  0.98940182  0.75495231    -0.19640
C3177       C  0.86376764  0.59151574  0.66750554    -0.21400
C3178       C  0.85089667  0.60750443  0.70441669    -0.09120
C3179       C  0.82225399  0.60794015  0.70555041     0.29740
C3180       C  0.80702288  0.59178879  0.67058777    -0.21080
C3181       C  0.81973183  0.57374509  0.63398969    -0.09130
C3182       C  0.84901996  0.57412125  0.63397701     0.29740
F3183       F  0.86459107  0.55533241  0.60524673    -0.19660
H3184       H  0.88583112  0.59038194  0.66629967     0.18110
H3185       H  0.78502700  0.59148326  0.67381129     0.18120
F3186       F  0.80896411  0.62366255  0.74065810    -0.19640
C3187       C  0.00958498  0.55387848  0.04199705    -0.21080
C3188       C  0.52951886  0.57089844  0.06871939    -0.09120
C3189       C  0.53083244  0.60614535  0.06525941     0.29740
C3190       C  0.51204285  0.62305594  0.03784932    -0.21080
C3191       C  0.99251017  0.60534333  0.01224735    -0.09130
C3192       C  0.99145516  0.57069968  0.01447097     0.29740
F3193       F  0.97302275  0.55298299  0.98926680    -0.19660
H3194       H  0.00796865  0.52697951  0.04280070     0.18110
H3195       H  0.51370685  0.64984969  0.03453102     0.18120
F3196       F  0.55096903  0.62440441  0.08513693    -0.19640
C3197       C  0.83628218  0.79863962  0.03477452    -0.21080
C3198       C  0.82065840  0.78342742  0.07011655    -0.09120
C3199       C  0.82824401  0.75022782  0.08171193     0.29740
C3200       C  0.84791405  0.73291432  0.05529980    -0.21080
C3201       C  0.86082431  0.74823080  0.01775331    -0.09130
C3202       C  0.85553207  0.78162757  0.00910057     0.29740
F3203       F  0.86928525  0.79822163  0.97545229    -0.19660
H3204       H  0.83460257  0.82448212  0.02678341     0.18110
H3205       H  0.85315405  0.70770094  0.06433374     0.18120
F3206       F  0.81946316  0.73566573  0.12116754    -0.19640
C3207       C  0.53787817  0.75049178  0.66539162    -0.21080
C3208       C  0.52705006  0.77364885  0.63388727    -0.09120
C3209       C  0.99768922  0.77641639  0.63538009     0.29740
C3210       C  0.98143191  0.75606896  0.66337381    -0.21080
C3211       C  0.99297474  0.73461372  0.69493545    -0.09130
C3212       C  0.52141566  0.73183059  0.69560025     0.29740
F3213       F  0.53350931  0.71200954  0.72705324    -0.19660
H3214       H  0.55918867  0.74850026  0.67080572     0.18110
H3215       H  0.95960170  0.76004396  0.66414446     0.18120
F3216       F  0.98387370  0.80193358  0.61645498    -0.19640
C3217       C  0.83452032  0.87683670  0.17800849    -0.21080
C3218       C  0.85909845  0.86219778  0.19094652    -0.09120
C3219       C  0.86498180  0.83019614  0.17504529     0.29740
C3220       C  0.84658855  0.81302613  0.14689444    -0.21080
C3221       C  0.82199787  0.82759531  0.13101729    -0.09130
C3222       C  0.81637108  0.86017919  0.14803952     0.29740
F3223       F  0.79211831  0.87473658  0.13915801    -0.19660
H3224       H  0.82895656  0.90069544  0.19280462     0.18110
H3225       H  0.85201904  0.78774785  0.13869020     0.18120
F3226       F  0.88791085  0.81459679  0.18911055    -0.19640
C3227       C  0.54550578  0.50216255  0.15709259    -0.21080
C3228       C  0.53244586  0.52716185  0.13132738    -0.09120
C3229       C  0.00462929  0.53379080  0.14299288     0.29740
C3230       C  0.99010987  0.51325050  0.17273406    -0.21080
C3231       C  0.00290501  0.98765679  0.19595970    -0.09130
C3232       C  0.53096207  0.98269781  0.18917572     0.29740
F3233       F  0.54422405  0.95914632  0.21348334    -0.19660
H3234       H  0.56704594  0.49761394  0.15194699     0.18110
H3235       H  0.96897046  0.51898551  0.18030136     0.18120
F3236       F  0.99145901  0.56165417  0.12965831    -0.19640
C3237       C  0.50439850  0.87104352  0.54863708    -0.21080
C3238       C  0.98964925  0.85297867  0.51518853    -0.09120
C3239       C  0.99422722  0.81856363  0.51130918     0.29740
C3240       C  0.01268325  0.80270443  0.54016018    -0.21080
C3241       C  0.52777408  0.82021394  0.57453878    -0.09130
C3242       C  0.52335724  0.85524120  0.57771121     0.29740
F3243       F  0.53727170  0.87476796  0.60795957    -0.19660
H3244       H  0.50202816  0.89776623  0.55093756     0.18110
H3245       H  0.01501164  0.77599470  0.53631734     0.18120
F3246       F  0.98068920  0.79995610  0.47932414    -0.19640
C3247       C  0.85133516  0.53489240  0.49975446    -0.21080
C3248       C  0.85868258  0.00144669  0.50349766    -0.09120
C3249       C  0.84665436  0.98243620  0.53891961     0.29740
C3250       C  0.82806664  0.99684197  0.57051980    -0.21080
C3251       C  0.82132829  0.53095618  0.56811974    -0.09130
C3252       C  0.83326950  0.54954693  0.53136406     0.29740
F3253       F  0.82863587  0.58270275  0.52749244    -0.19660
H3254       H  0.86013081  0.55008874  0.47270782     0.18110
H3255       H  0.81924602  0.98113160  0.59682217     0.18120
F3256       F  0.85215749  0.94950259  0.54180182    -0.19640
C3257       C  0.89502466  0.97067850  0.89337390    -0.21080
C3258       C  0.91932153  0.95293993  0.89912258    -0.09120
C3259       C  0.93416993  0.96025740  0.94074581     0.29740
C3260       C  0.92268217  0.97939302  0.97704057    -0.21080
C3261       C  0.89724472  0.99418608  0.97170316    -0.09130
C3262       C  0.88488350  0.49180640  0.92784114     0.29740
F3263       F  0.86163124  0.50863464  0.91900474    -0.19660
H3264       H  0.88295949  0.96817001  0.86276757     0.18110
H3265       H  0.93320470  0.98148973  0.00970343     0.18120
F3266       F  0.95974151  0.94857801  0.94710260    -0.19640
C3267       C  0.96281152  0.97643155  0.83924588    -0.21080
C3268       C  0.94930316  0.94630498  0.82685356    -0.09120
C3269       C  0.95589084  0.93222625  0.78306002     0.29740
C3270       C  0.97237583  0.94935082  0.75186275    -0.21080
C3271       C  0.98442452  0.48002728  0.76377215    -0.09130
C3272       C  0.98063249  0.49252198  0.80865116     0.29740
F3273       F  0.99395608  0.52045754  0.82291054    -0.19660
H3274       H  0.96019829  0.98783106  0.87279968     0.18110
H3275       H  0.97600567  0.93816200  0.71819600     0.18120
F3276       F  0.94684201  0.90146131  0.77035933    -0.19640
C3277       C  0.89893191  0.87654810  0.83466911    -0.21080
C3278       C  0.90576070  0.91103512  0.83168213    -0.09120
C3279       C  0.89296158  0.92850558  0.79503585     0.29740
C3280       C  0.87562283  0.91216730  0.76327842    -0.21080
C3281       C  0.86971891  0.87800189  0.76667056    -0.09130
C3282       C  0.88114575  0.86066372  0.80335117     0.29740
F3283       F  0.87678497  0.82743297  0.80665276    -0.19660
H3284       H  0.90812187  0.86055957  0.85965390     0.18110
H3285       H  0.86730183  0.92625040  0.73501385     0.18120
F3286       F  0.89905258  0.96098095  0.78693911    -0.19640
C3287       C  0.97382703  0.89284338  0.87509677    -0.21080
C3288       C  0.94628097  0.90016501  0.88626880    -0.09120
C3289       C  0.93506110  0.88474372  0.92606756     0.29740
C3290       C  0.95154088  0.86679160  0.95587788    -0.21080
C3291       C  0.97930664  0.86253920  0.94621810    -0.09130
C3292       C  0.49002057  0.87423998  0.90450484     0.29740
F3293       F  0.51681894  0.87028372  0.89397814    -0.19660
H3294       H  0.98391578  0.90279423  0.84505539     0.18110
H3295       H  0.94279468  0.85727173  0.98759949     0.18120
F3296       F  0.90860083  0.88956571  0.93831414    -0.19640
loop_ 
_geom_bond_atom_site_label_1 
_geom_bond_atom_site_label_2 
_geom_bond_distance 
_geom_bond_site_symmetry_2 
_ccdc_geom_bond_type 
C1          C786   1.583       .  S
C1          C796   1.562       .  S
C1          C806   1.596       .  S
C1          C816   1.562       .  S
O2          Zr14   2.330       .  S
O2            C4   1.267       .  A
O3          Zr40   2.421       .  S
O3            C4   1.291       .  A
C4         C1020   1.419       .  S
O5          Zr17   2.414       .  S
O5            C7   1.285       .  A
O6          Zr41   2.385       .  S
O6            C7   1.277       .  A
C7         C1170   1.423       .  S
O8          Zr17   2.465       .  S
O8           C10   1.293       .  A
O9          Zr40   2.441       .  S
O9           C10   1.290       .  A
C10         C776   1.492       .  S
O11         Zr14   2.430       .  S
O11          C13   1.283       .  A
O12         Zr41   2.431       .  S
O12          C13   1.287       .  A
C13         C759   1.470       .  S
Zr14         O20   2.393       .  S
Zr14         O21   2.332       .  S
Zr14         O44   2.325       .  S
Zr14         O46   2.380       .  S
Zr14        O839   2.433       .  S
Zr14       O1664   2.438       .  S
O15        Zr838   2.433   1_545  S
O15          H58   0.989       .  S
O16       Zr1662   2.438   1_455  S
O16          H57   0.990       .  S
O16          H61   0.990       .  S
Zr17         O21   2.377       .  S
Zr17         O20   2.356       .  S
Zr17         O45   2.350       .  S
Zr17         O47   2.381       .  S
Zr17         O19   2.434       .  S
Zr17        O842   2.437       .  S
O18        Zr841   2.437   1_545  S
O18          H59   0.990       .  S
O18          H62   0.990       .  S
O19          H52   0.990       .  S
O20         Zr40   2.395       .  S
O21         Zr41   2.378       .  S
O21          H48   0.966       .  S
O22         Zr34   2.358       .  S
O22          C24   1.271       .  A
O23         Zr41   2.386       .  S
O23          C24   1.284       .  A
C24        C1912   1.415       .  S
O25         Zr37   2.369       .  S
O25          C27   1.274       .  A
O26         Zr40   2.436       .  S
O26          C27   1.293       .  A
C27         C446   1.441       .  S
O28         Zr37   2.429       .  S
O28          C30   1.283       .  A
O29         Zr41   2.445       .  S
O29          C30   1.289       .  A
C30         C746   1.473       .  S
O31         Zr34   2.426       .  S
O31          C33   1.283       .  A
O32         Zr40   2.481       .  S
O32          C33   1.296       .  A
C33         C766   1.497       .  S
Zr34         O42   2.389       .  S
Zr34         O43   2.341       .  S
Zr34         O46   2.335       .  S
Zr34         O44   2.376       .  S
Zr34         O35   2.413       .  S
Zr34       O1684   2.435       .  S
O35          H55   0.987       .  S
O35          H60   0.990       .  S
O36       Zr1682   2.435   1_455  S
O36          H56   0.991       .  S
Zr37         O43   2.392       .  S
Zr37         O42   2.353       .  S
Zr37         O47   2.351       .  S
Zr37         O45   2.371       .  S
Zr37         O38   2.436       .  S
Zr37         O39   2.437       .  S
O38          H54   0.990       .  S
O39          H53   0.990       .  S
O39          H63   0.990       .  S
Zr40         O43   2.377       .  S
Zr40         O45   2.385       .  S
Zr40         O46   2.378       .  S
Zr41         O42   2.381       .  S
Zr41         O44   2.363       .  S
Zr41         O47   2.377       .  S
O42          H50   0.966       .  S
O45          H49   0.965       .  S
O46          H51   0.965       .  S
O64         Zr76   2.362       .  S
O64          C66   1.272       .  A
O65        Zr102   2.380       .  S
O65          C66   1.280       .  A
C66        C1932   1.415       .  S
O67         Zr79   2.363       .  S
O67          C69   1.274       .  A
O68        Zr103   2.408       .  S
O68          C69   1.287       .  A
C69         C443   1.430       .  S
O70         Zr79   2.403       .  S
O70          C72   1.281       .  A
O71        Zr102   2.441       .  S
O71          C72   1.286       .  A
C72         C729   1.470   1_556  S
O73         Zr76   2.437       .  S
O73          C75   1.285       .  A
O74        Zr103   2.447       .  S
O74          C75   1.290       .  A
C75         C739   1.484       .  S
Zr76         O82   2.383       .  S
Zr76         O83   2.344       .  S
Zr76        O106   2.335       .  S
Zr76        O108   2.384       .  S
Zr76         O77   2.437       .  S
Zr76       O1726   2.440       .  S
O77         H120   0.990       .  S
O78       Zr1724   2.440   1_455  S
O78         H119   0.990       .  S
O78         H123   0.990       .  S
Zr79         O83   2.382       .  S
Zr79         O82   2.348       .  S
Zr79        O107   2.350       .  S
Zr79        O109   2.364       .  S
Zr79         O80   2.429       .  S
Zr79         O81   2.434       .  S
O80         H121   0.990       .  S
O80         H124   0.990       .  S
O81         H114   0.990       .  S
O82        Zr102   2.377       .  S
O83        Zr103   2.379       .  S
O83         H110   0.966       .  S
O84         Zr96   2.344       .  S
O84          C86   1.270       .  A
O85        Zr103   2.411       .  S
O85          C86   1.287       .  A
C86        C1841   1.423       .  S
O87         Zr99   2.428       .  S
O87          C89   1.288       .  A
O88        Zr102   2.374       .  S
O88          C89   1.276       .  A
C89         C323   1.433   1_556  S
O90         Zr99   2.472       .  S
O90          C92   1.292       .  A
O91        Zr103   2.423       .  S
O91          C92   1.288       .  A
C92         C706   1.488       .  S
O93         Zr96   2.419       .  S
O93          C95   1.283       .  A
O94        Zr102   2.420       .  S
O94          C95   1.283       .  A
C95         C719   1.460   1_556  S
Zr96        O104   2.376       .  S
Zr96        O105   2.327       .  S
Zr96        O108   2.338       .  S
Zr96        O106   2.372       .  S
Zr96         O97   2.428       .  S
Zr96       O1746   2.435       .  S
O97         H117   0.989       .  S
O97         H122   0.990       .  S
O98       Zr1744   2.435   1_455  S
O98         H118   0.991       .  S
Zr99        O105   2.377       .  S
Zr99        O104   2.361       .  S
Zr99        O109   2.346       .  S
Zr99        O107   2.378       .  S
Zr99        O100   2.434       .  S
Zr99        O101   2.430       .  S
O100        H116   0.990       .  S
O101        H115   0.990       .  S
O101        H125   0.990       .  S
Zr102       O105   2.377       .  S
Zr102       O107   2.384       .  S
Zr102       O108   2.380       .  S
Zr103       O104   2.388       .  S
Zr103       O106   2.361       .  S
Zr103       O109   2.371       .  S
O104        H112   0.966       .  S
O107        H111   0.966       .  S
O108        H113   0.965       .  S
O126       Zr138   2.336       .  S
O126        C128   1.264       .  A
O127       Zr164   2.512       .  S
O127        C128   1.311       .  A
C128       C1150   1.457   1_556  S
O129       Zr141   2.354       .  S
O129        C131   1.271       .  A
O130       Zr165   2.441       .  S
O130        C131   1.289       .  A
C131        C261   1.430       .  S
O132       Zr141   2.397       .  S
O132        C134   1.279       .  A
O133       Zr164   2.515       .  S
O133        C134   1.305       .  A
C134        C686   1.506       .  S
O135       Zr138   2.380       .  S
O135        C137   1.274       .  A
O136       Zr165   2.498       .  S
O136        C137   1.299       .  A
C137        C679   1.486       .  S
Zr138       O144   2.364       .  S
Zr138       O145   2.348       .  S
Zr138       O168   2.341       .  S
Zr138       O170   2.374       .  S
Zr138       O139   2.436       .  S
Zr138       O964   2.435       .  S
O139        H182   0.991   1_556  S
O140       Zr962   2.435   1_545  S
O140        H181   0.990       .  S
O140        H185   0.990       .  S
Zr141       O145   2.373       .  S
Zr141       O144   2.336       .  S
Zr141       O169   2.344       .  S
Zr141       O171   2.367       .  S
Zr141       O142   2.431   1_556  S
Zr141       O143   2.436       .  S
O142        H183   0.990       .  S
O142        H186   0.990       .  S
O143        H176   0.990       .  S
O144       Zr164   2.369       .  S
O145       Zr165   2.391       .  S
O145        H172   0.965       .  S
O146       Zr158   2.375       .  S
O146        C148   1.273       .  A
O147       Zr165   2.424       .  S
O147        C148   1.286       .  A
C148       C1040   1.426       .  S
O149       Zr161   2.362       .  S
O149        C151   1.272       .  A
O150       Zr164   2.465       .  S
O150        C151   1.295       .  A
C151        C466   1.447       .  S
O152       Zr161   2.419       .  S
O152        C154   1.283       .  A
O153       Zr165   2.513       .  S
O153        C154   1.303       .  A
C154        C669   1.512       .  S
O155       Zr158   2.395       .  S
O155        C157   1.279       .  A
O156       Zr164   2.549       .  S
O156        C157   1.310       .  A
C157        C696   1.532       .  S
Zr158       O166   2.371       .  S
Zr158       O167   2.342       .  S
Zr158       O170   2.361       .  S
Zr158       O168   2.366       .  S
Zr158       O159   2.438       .  S
Zr158       O984   2.435       .  S
O159        H179   0.990       .  S
O159        H184   0.990       .  S
O160       Zr982   2.435   1_545  S
O160        H180   0.990       .  S
Zr161       O167   2.362       .  S
Zr161       O166   2.344       .  S
Zr161       O171   2.347       .  S
Zr161       O169   2.370       .  S
Zr161       O162   2.431       .  S
Zr161       O163   2.433       .  S
O162        H178   0.991       .  S
O163        H177   0.990       .  S
O163        H187   0.990       .  S
Zr164       O167   2.387       .  S
Zr164       O169   2.414       .  S
Zr164       O170   2.416       .  S
Zr165       O166   2.395       .  S
Zr165       O168   2.409       .  S
Zr165       O171   2.402       .  S
O166        H174   0.965       .  S
O169        H173   0.966       .  S
O170        H175   0.966       .  S
C188        C629   1.599       .  S
C188        C636   1.556       .  S
C188        C646   1.609       .  S
C188        C659   1.598       .  S
C189        C586   1.593       .  S
C189        C599   1.584       .  S
C189        C606   1.597       .  S
C189        C616   1.616       .  S
C190        C546   1.590       .  S
C190        C556   1.589       .  S
C190        C566   1.568       .  S
C190        C576   1.612       .  S
O191      Zr1851   2.357       .  S
O191       C1841   1.271       .  A
O192       Zr229   2.405       .  S
O192        C193   1.287   1_455  A
C193       O1839   1.271       .  A
C193       C1734   1.423       .  S
O194      Zr1854   2.330   1_565  S
O194        C196   1.267       .  A
O195       Zr230   2.421       .  S
O195       C1844   1.291   1_445  A
C196       O1843   1.291   1_565  A
C196        C828   1.419       .  S
O197      Zr1854   2.411   1_565  S
O197       C1847   1.282       .  A
O198       Zr229   2.439       .  S
O198        C199   1.288   1_445  A
C199       O1845   1.282       .  A
C199       C2447   1.482       .  S
O200      Zr1851   2.434       .  S
O200       C1850   1.285       .  A
O201       Zr230   2.451       .  S
O201        C202   1.290       .  A
C202       O1848   1.285       .  A
C202       C2217   1.483   1_455  S
Zr203      O1839   2.357   1_455  S
Zr203      O1848   2.434       .  S
Zr203       O209   2.385       .  S
Zr203       O210   2.340       .  S
Zr203       O233   2.342       .  S
Zr203       O235   2.384       .  S
Zr203       O205   2.435       .  S
Zr203      O1852   2.435   1_455  S
O204      Zr1851   2.435       .  S
O204        H247   0.990       .  S
O205        H246   0.990       .  S
O205       H1898   0.990       .  S
Zr206      O1842   2.330   1_445  S
Zr206      O1845   2.411   1_445  S
Zr206       O210   2.377       .  S
Zr206       O209   2.334       .  S
Zr206       O234   2.330       .  S
Zr206       O236   2.388       .  S
Zr206      O1855   2.436   1_455  S
Zr206      O1032   2.431   1_545  S
O207      Zr1854   2.436       .  S
O207        H248   0.990       .  S
O207        H251   0.990   1_545  S
O208      Zr1030   2.431       .  S
O208        H241   0.990       .  S
O209       Zr229   2.366       .  S
O210       Zr230   2.372       .  S
O210       H1885   0.965   1_455  S
O211       Zr223   2.359       .  S
O211        C213   1.272       .  A
O212       Zr230   2.426       .  S
O212        C213   1.291       .  A
C213        C387   1.433       .  S
O214       Zr226   2.438   1_565  S
O214        C216   1.290       .  A
O215       Zr229   2.375       .  S
O215        C216   1.276   1_545  A
C216        C972   1.426       .  S
O217       Zr226   2.499   1_565  S
O217        C219   1.299       .  A
O218       Zr230   2.435       .  S
O218        C219   1.288   1_545  A
C219       C1433   1.496       .  S
O220       Zr223   2.401       .  S
O220        C222   1.279       .  A
O221       Zr229   2.462       .  S
O221        C222   1.292       .  A
C222        C626   1.497       .  S
Zr223       O231   2.369       .  S
Zr223       O232   2.347       .  S
Zr223       O235   2.350       .  S
Zr223       O233   2.380       .  S
Zr223       O224   2.438       .  S
Zr223       O225   2.436       .  S
O224        H244   0.990       .  S
O224        H249   0.990       .  S
O225        H245   0.990       .  S
Zr226       O232   2.384       .  S
Zr226       O231   2.346       .  S
Zr226       O236   2.360       .  S
Zr226       O234   2.376       .  S
Zr226       O227   2.433   1_545  S
Zr226      O1052   2.435   1_545  S
O227        H243   0.990   1_565  S
O228      Zr1050   2.435       .  S
O228        H242   0.990       .  S
O228        H252   0.990       .  S
Zr229       O232   2.383       .  S
Zr229       O234   2.386       .  S
Zr229       O235   2.385       .  S
Zr230       O231   2.382       .  S
Zr230       O233   2.380       .  S
Zr230       O236   2.387       .  S
O231        H239   0.965       .  S
O234       H1062   0.965   1_545  S
O235        H240   0.966       .  S
H237       O1858   0.965       .  S
H238       O1058   0.965       .  S
H250       O1853   0.990       .  S
O253      Zr1913   2.441       .  S
O253       C1903   1.285   1_554  A
O254       Zr291   2.414   1_556  S
O254        C255   1.283   1_455  A
C255       O1901   1.285   1_556  A
C255       C2467   1.471       .  S
O256       Zr268   2.481       .  S
O256        C258   1.297       .  A
O257       Zr292   2.423       .  S
O257        C258   1.286       .  A
C258        C589   1.506       .  S
O259       Zr268   2.443       .  S
O259        C261   1.292   1_554  A
O260       Zr291   2.372   1_556  S
O260        C261   1.273       .  A
O262      Zr1913   2.345       .  S
O262       C1912   1.270       .  A
O263       Zr292   2.397       .  S
O263        C264   1.284       .  A
C264       O1910   1.270   1_455  A
C264       C1672   1.415   1_455  S
Zr265      O1901   2.441   1_455  S
Zr265      O1910   2.345   1_455  S
Zr265       O271   2.328       .  S
Zr265       O272   2.383       .  S
Zr265       O295   2.377       .  S
Zr265       O297   2.340       .  S
Zr265       O266   2.430       .  S
Zr265      O1915   2.440   1_455  S
O266        H309   0.990       .  S
O267      Zr1913   2.440       .  S
O267        H308   0.990       .  S
O267        H312   0.990       .  S
Zr268       O272   2.356       .  S
Zr268       O271   2.372       .  S
Zr268       O296   2.377       .  S
Zr268       O298   2.351       .  S
Zr268       O269   2.437       .  S
Zr268       O270   2.429       .  S
O269        H310   0.990       .  S
O269        H313   0.990       .  S
O270        H303   0.990       .  S
O271       Zr291   2.385       .  S
O272       Zr292   2.399       .  S
O272        H299   0.966       .  S
O273      Zr1933   2.428       .  S
O273       C1923   1.284       .  A
O274       Zr292   2.447       .  S
O274        C275   1.289       .  A
C275       O1921   1.284   1_455  A
C275       C2207   1.474   1_455  S
O276       Zr288   2.396       .  S
O276        C278   1.279   1_554  A
O277       Zr291   2.456   1_556  S
O277        C278   1.290       .  A
C278        C639   1.479       .  S
O279       Zr288   2.353       .  S
O279        C281   1.270       .  A
O280       Zr292   2.414       .  S
O280        C281   1.287       .  A
C281        C390   1.429       .  S
O282      Zr1933   2.358       .  S
O282       C1932   1.273   1_554  A
O283       Zr291   2.383   1_556  S
O283        C284   1.282   1_455  A
C284       O1930   1.273   1_556  A
C284       C1714   1.415       .  S
Zr285      O1921   2.428   1_455  S
Zr285      O1930   2.358   1_455  S
Zr285       O293   2.348       .  S
Zr285       O294   2.387       .  S
Zr285       O297   2.380       .  S
Zr285       O295   2.334       .  S
Zr285       O286   2.435       .  S
Zr285      O1935   2.434   1_455  S
O286        H306   0.990       .  S
O286       H1959   0.990   1_455  S
O287      Zr1933   2.434       .  S
O287        H307   0.990       .  S
Zr288       O294   2.352       .  S
Zr288       O293   2.378       .  S
Zr288       O298   2.368       .  S
Zr288       O296   2.352       .  S
Zr288       O289   2.435       .  S
Zr288       O290   2.439       .  S
O289        H305   0.990       .  S
O290        H304   0.990       .  S
O290        H314   0.990       .  S
Zr291       O294   2.377       .  S
Zr291       O296   2.381       .  S
Zr291       O297   2.377       .  S
Zr292       O293   2.377       .  S
Zr292       O295   2.366       .  S
Zr292       O298   2.369       .  S
O293        H301   0.966       .  S
O296        H300   0.966       .  S
O297       H1950   0.965   1_455  S
H302       O1945   0.965       .  S
H311       O1934   0.990       .  S
O315      Zr1151   2.372       .  S
O315       C1141   1.274       .  A
O316       Zr353   2.511       .  S
O316        C317   1.301       .  A
C317       O1139   1.274   1_545  A
C317       C1613   1.495   1_544  S
O318       Zr330   2.410       .  S
O318        C320   1.281       .  A
O319       Zr354   2.519       .  S
O319        C320   1.304       .  A
C320        C649   1.519   1_554  S
O321       Zr330   2.408       .  S
O321        C323   1.274       .  A
O322       Zr353   2.405       .  S
O322        C323   1.278       .  A
O324      Zr1151   2.328       .  S
O324       C1150   1.264       .  A
O325       Zr354   2.514       .  S
O325        C326   1.310   1_545  A
C326       O1148   1.264       .  A
C326        C952   1.457   1_554  S
Zr327      O1139   2.372   1_545  S
Zr327      O1148   2.328   1_545  S
Zr327       O333   2.321       .  S
Zr327       O334   2.373       .  S
Zr327       O357   2.370   1_545  S
Zr327       O359   2.346       .  S
Zr327       O328   2.433   1_544  S
Zr327      O1153   2.427   1_545  S
O328        H371   0.991   1_565  S
O329      Zr1151   2.427       .  S
O329        H370   0.989       .  S
O329        H374   0.990       .  S
Zr330       O334   2.360       .  S
Zr330       O333   2.351       .  S
Zr330       O358   2.370       .  S
Zr330       O360   2.360       .  S
Zr330       O331   2.432   1_554  S
Zr330       O332   2.431       .  S
O331        H372   0.990       .  S
O331        H375   0.990       .  S
O332        H365   0.990       .  S
O333       Zr353   2.374       .  S
O334       Zr354   2.394       .  S
O334        H361   0.964       .  S
O335      Zr1171   2.392       .  S
O335       C1161   1.278       .  A
O336       Zr354   2.557       .  S
O336        C337   1.312   1_545  A
C337       O1159   1.278       .  A
C337       C1420   1.527       .  S
O338       Zr350   2.411       .  S
O338        C340   1.282       .  A
O339       Zr353   2.492       .  S
O339        C340   1.300       .  A
C340        C549   1.501       .  S
O341       Zr350   2.382       .  S
O341        C343   1.276       .  A
O342       Zr354   2.464       .  S
O342        C343   1.295       .  A
C343        C407   1.449       .  S
O344      Zr1171   2.377       .  S
O344       C1170   1.275       .  A
O345       Zr353   2.406       .  S
O345        C346   1.283       .  A
C346       O1168   1.275   1_545  A
C346        C831   1.423   1_545  S
Zr347      O1159   2.392   1_545  S
Zr347      O1168   2.377   1_545  S
Zr347       O355   2.348       .  S
Zr347       O356   2.360       .  S
Zr347       O359   2.354       .  S
Zr347       O357   2.356   1_545  S
Zr347       O348   2.440   1_545  S
Zr347      O1173   2.420   1_545  S
O348        H368   0.990       .  S
O348       H1197   0.990       .  S
O349      Zr1171   2.420       .  S
O349        H369   0.990       .  S
Zr350       O356   2.352       .  S
Zr350       O355   2.357       .  S
Zr350       O360   2.369       .  S
Zr350       O358   2.350       .  S
Zr350       O351   2.433       .  S
Zr350       O352   2.435       .  S
O351        H367   0.991       .  S
O352        H366   0.990       .  S
O352        H376   0.990       .  S
Zr353       O356   2.383       .  S
Zr353       O358   2.421       .  S
Zr353       O359   2.401       .  S
Zr354       O355   2.403       .  S
Zr354       O357   2.406   1_545  S
Zr354       O360   2.421       .  S
O355        H363   0.963       .  S
O358        H362   0.966       .  S
O359       H1188   0.965   1_545  S
H364       O1183   0.965       .  S
H373       O1172   0.990       .  S
C377        C536   1.604       .  S
C377        C689   1.599       .  S
C377        C726   1.571       .  S
C377        C749   1.582       .  S
C378        C529   1.629       .  S
C378        C666   1.578       .  S
C378        C736   1.600       .  S
C378        C769   1.581       .  S
O379       Zr391   2.430       .  S
O379        C381   1.285       .  A
O380       Zr417   2.523       .  S
O380        C381   1.304       .  A
C381        C526   1.534       .  S
O382       Zr394   2.451       .  S
O382        C384   1.288       .  A
O383       Zr418   2.470       .  S
O383        C384   1.294       .  A
C384        C506   1.498       .  S
O385       Zr394   2.359       .  S
O385        C387   1.272       .  A
O386       Zr417   2.425       .  S
O386        C387   1.291       .  A
O388       Zr391   2.357       .  S
O388        C390   1.272       .  A
O389       Zr418   2.419       .  S
O389        C390   1.289       .  A
Zr391       O397   2.338       .  S
Zr391       O398   2.387       .  S
Zr391       O421   2.384       .  S
Zr391       O423   2.348       .  S
Zr391       O392   2.435       .  S
Zr391       O393   2.437       .  S
O392        H435   0.990       .  S
O393        H434   0.990       .  S
O393        H438   0.990       .  S
Zr394       O398   2.345       .  S
Zr394       O397   2.385       .  S
Zr394       O422   2.392       .  S
Zr394       O424   2.341       .  S
Zr394       O395   2.438       .  S
Zr394       O396   2.437       .  S
O395        H436   0.990       .  S
O395        H439   0.990       .  S
O396        H429   0.990       .  S
O397       Zr417   2.377       .  S
O398       Zr418   2.383       .  S
O398        H425   0.966       .  S
O399       Zr411   2.442       .  S
O399        C401   1.289       .  A
O400       Zr418   2.483       .  S
O400        C401   1.296       .  A
C401        C539   1.510       .  S
O402       Zr414   2.500       .  S
O402        C404   1.300       .  A
O403       Zr417   2.473       .  S
O403        C404   1.297       .  A
C404        C519   1.522       .  S
O405       Zr414   2.457       .  S
O405        C407   1.294       .  A
O406       Zr418   2.400       .  S
O406        C407   1.280       .  A
O408       Zr411   2.394       .  S
O408        C410   1.279       .  A
O409       Zr417   2.443       .  S
O409        C410   1.293       .  A
C410        C463   1.456       .  S
Zr411       O419   2.358       .  S
Zr411       O420   2.376       .  S
Zr411       O423   2.388       .  S
Zr411       O421   2.356       .  S
Zr411       O412   2.437       .  S
Zr411       O413   2.435       .  S
O412        H432   0.990       .  S
O412        H437   0.990       .  S
O413        H433   0.990       .  S
Zr414       O420   2.361       .  S
Zr414       O419   2.387       .  S
Zr414       O424   2.379       .  S
Zr414       O422   2.363       .  S
Zr414       O415   2.433       .  S
Zr414       O416   2.436       .  S
O415        H431   0.990       .  S
O416        H430   0.990       .  S
O416        H440   0.990       .  S
Zr417       O420   2.388       .  S
Zr417       O422   2.410       .  S
Zr417       O423   2.385       .  S
Zr418       O419   2.397       .  S
Zr418       O421   2.388       .  S
Zr418       O424   2.390       .  S
O419        H427   0.966       .  S
O422        H426   0.966       .  S
O423        H428   0.966       .  S
O441       Zr453   2.369       .  S
O441        C443   1.274       .  A
O442       Zr479   2.406       .  S
O442        C443   1.286       .  A
O444       Zr456   2.364       .  S
O444        C446   1.274       .  A
O445       Zr480   2.442       .  S
O445        C446   1.294       .  A
O447       Zr456   2.455       .  S
O447        C449   1.289       .  A
O448       Zr479   2.463       .  S
O448        C449   1.294       .  A
C449        C809   1.502       .  S
O450       Zr453   2.438       .  S
O450        C452   1.287       .  A
O451       Zr480   2.515       .  S
O451        C452   1.301       .  A
C452        C579   1.533       .  S
Zr453       O459   2.388       .  S
Zr453       O460   2.342       .  S
Zr453       O483   2.349       .  S
Zr453       O485   2.382       .  S
Zr453       O454   2.435       .  S
Zr453       O455   2.437       .  S
O454        H497   0.990       .  S
O455        H496   0.990       .  S
O455        H500   0.990       .  S
Zr456       O460   2.385       .  S
Zr456       O459   2.344       .  S
Zr456       O484   2.332       .  S
Zr456       O486   2.396       .  S
Zr456       O457   2.436       .  S
Zr456       O458   2.429       .  S
O457        H498   0.990       .  S
O457        H501   0.990       .  S
O458        H491   0.990       .  S
O459       Zr479   2.378       .  S
O460       Zr480   2.389       .  S
O460        H487   0.965       .  S
O461       Zr473   2.398       .  S
O461        C463   1.280       .  A
O462       Zr480   2.444       .  S
O462        C463   1.294       .  A
O464       Zr476   2.450       .  S
O464        C466   1.294       .  A
O465       Zr479   2.402       .  S
O465        C466   1.280       .  A
O467       Zr476   2.490       .  S
O467        C469   1.299       .  A
O468       Zr480   2.486       .  S
O468        C469   1.298       .  A
C469        C619   1.530       .  S
O470       Zr473   2.451       .  S
O470        C472   1.289       .  A
O471       Zr479   2.478       .  S
O471        C472   1.296       .  A
C472        C656   1.500       .  S
Zr473       O481   2.381       .  S
Zr473       O482   2.360       .  S
Zr473       O485   2.354       .  S
Zr473       O483   2.394       .  S
Zr473       O474   2.437       .  S
Zr473       O475   2.431       .  S
O474        H494   0.990       .  S
O474        H499   0.990       .  S
O475        H495   0.989       .  S
Zr476       O482   2.387       .  S
Zr476       O481   2.358       .  S
Zr476       O486   2.364       .  S
Zr476       O484   2.373       .  S
Zr476       O477   2.433       .  S
Zr476       O478   2.436       .  S
O477        H493   0.990       .  S
O478        H492   0.990       .  S
O478        H502   0.990       .  S
Zr479       O482   2.391       .  S
Zr479       O484   2.385       .  S
Zr479       O485   2.390       .  S
Zr480       O481   2.398       .  S
Zr480       O483   2.395       .  S
Zr480       O486   2.406       .  S
O481        H489   0.965       .  S
O484        H488   0.965       .  S
O485        H490   0.966       .  S
C503        C516   1.604       .  S
C503        C699   1.600       .  S
C503        C709   1.585       .  S
C503        C779   1.565       .  S
C504        C509   1.577       .  S
C504        C676   1.574       .  S
C504        C716   1.555       .  S
C504        C756   1.567       .  S
C505        C506   1.404       .  A
C505        C510   1.413       .  A
C505        H512   1.083       .  S
C506        C507   1.405       .  A
C507        C508   1.404       .  A
C507        F514   1.358       .  S
C508        C509   1.418       .  A
C508        H513   1.082       .  S
C509        C510   1.427       .  A
C510        F511   1.354       .  S
C515        C516   1.422       .  A
C515        C520   1.423       .  A
C515        H522   1.078       .  S
C516        C517   1.433       .  A
C517        C518   1.413       .  A
C517        F524   1.358       .  S
C518        C519   1.403       .  A
C518        H523   1.083       .  S
C519        C520   1.412       .  A
C520        F521   1.355       .  S
C525        C526   1.410       .  A
C525        C530   1.430       .  A
C525        H532   1.083       .  S
C526        C527   1.414       .  A
C527        C528   1.403       .  A
C527        F534   1.358       .  S
C528        C529   1.424       .  A
C528        H533   1.077       .  S
C529        C530   1.439       .  A
C530        F531   1.351       .  S
C535        C536   1.430       .  A
C535        C540   1.420       .  A
C535        H542   1.082       .  S
C536        C537   1.429       .  A
C537        C538   1.399       .  A
C537        F544   1.346       .  S
C538        C539   1.400       .  A
C538        H543   1.084       .  S
C539        C540   1.407       .  A
C540        F541   1.357       .  S
C545        C546   1.430       .  A
C545        C550   1.406       .  A
C545        H552   1.068       .  S
C546        C547   1.421       .  A
C547        C548   1.405       .  A
C547        F554   1.356       .  S
C548        C549   1.410       .  A
C548        H553   1.083       .  S
C549        C550   1.396       .  A
C550        F551   1.358       .  S
C555        C556   1.430       .  A
C555       C2208   1.393       .  A
C555        H562   1.082       .  S
C556        C557   1.419       .  A
C557        C558   1.412       .  A
C557        F564   1.345       .  S
C558        C559   1.400       .  A
C558        H563   1.082       .  S
C559       C1923   1.474       .  S
C559       C2208   1.391       .  A
C560       C2203   1.393       .  A
C560       C2207   1.391       .  A
C560        F561   1.358   1_655  S
C565        C566   1.416       .  A
C565        C570   1.411       .  A
C565        H572   1.081       .  S
C566        C567   1.423       .  A
C567        C568   1.393       .  A
C567        F574   1.359       .  S
C568        C569   1.397       .  A
C568        H573   1.084       .  S
C569       C1850   1.483       .  S
C569        C570   1.407       .  A
C570       F2219   1.356       .  S
F571       C2218   1.356       .  S
C575        C576   1.422       .  A
C575        C580   1.398       .  A
C575        H582   1.077       .  S
C576        C577   1.431       .  A
C577        C578   1.432       .  A
C577        F584   1.358       .  S
C578        C579   1.415       .  A
C578        H583   1.082       .  S
C579        C580   1.414       .  A
C580        F581   1.358       .  S
C585        C586   1.425       .  A
C585        C590   1.394       .  A
C585        H592   1.077       .  S
C586        C587   1.418       .  A
C587        C588   1.417       .  A
C587        F594   1.358       .  S
C588        C589   1.415       .  A
C588        H593   1.083       .  S
C589        C590   1.402       .  A
C590        F591   1.358       .  S
C595        C596   1.419       .  A
C595        C600   1.398       .  A
C595        H602   1.080       .  S
C596       C1161   1.527       .  S
C596        C597   1.409       .  A
C597        C598   1.426       .  A
C597        F604   1.356       .  S
C598        C599   1.433       .  A
C598        H603   1.082       .  S
C599        C600   1.412       .  A
C600        F601   1.354       .  S
C605        C606   1.424       .  A
C605        C610   1.409       .  A
C605        H612   1.072       .  S
C606        C607   1.425       .  A
C607        C608   1.412       .  A
C607        F614   1.358       .  S
C608        C609   1.403       .  A
C608       H1437   1.083       .  S
C609       C1043   1.496       .  S
C609        C610   1.401       .  A
C610        F611   1.358       .  S
H613       C1432   1.083   1_545  S
C615        C616   1.426       .  A
C615        C620   1.407       .  A
C615        H622   1.065       .  S
C616        C617   1.433       .  A
C617        C618   1.429       .  A
C617        F624   1.356       .  S
C618        C619   1.414       .  A
C618        H623   1.083       .  S
C619        C620   1.405       .  A
C620        F621   1.358       .  S
C625        C626   1.398       .  A
C625        C630   1.410       .  A
C625        H632   1.083       .  S
C626        C627   1.407       .  A
C627        C628   1.389       .  A
C627        F634   1.359       .  S
C628        C629   1.421       .  A
C628        H633   1.074       .  S
C629        C630   1.436       .  A
C630        F631   1.346       .  S
C635        C636   1.424       .  A
C635        C640   1.402       .  A
C635        H642   1.081       .  S
C636        C637   1.413       .  A
C637        C638   1.390       .  A
C637        F644   1.357       .  S
C638        C639   1.406       .  A
C638        H643   1.083       .  S
C639        C640   1.399       .  A
C640        F641   1.357       .  S
C645        C646   1.434       .  A
C645        C650   1.421       .  A
C645        H652   1.065       .  S
C646        C647   1.427       .  A
C647        C648   1.394       .  A
C647        F654   1.353       .  S
C648        C649   1.409       .  A
C648        H653   1.079       .  S
C649        C650   1.401       .  A
C650        F651   1.357   1_556  S
C655        C656   1.402       .  A
C655        C660   1.413       .  A
C655        H662   1.083       .  S
C656        C657   1.404       .  A
C657        C658   1.407       .  A
C657        F664   1.357       .  S
C658        C659   1.426       .  A
C658        H663   1.083       .  S
C659        C660   1.431       .  A
C660        F661   1.354       .  S
C665        C666   1.410       .  A
C665        C670   1.402       .  A
C665        H672   1.081       .  S
C666        C667   1.432       .  A
C667        C668   1.416       .  A
C667        F674   1.355       .  S
C668        C669   1.403       .  A
C668        H673   1.083       .  S
C669        C670   1.417       .  A
C670        F671   1.357       .  S
C675        C676   1.416       .  A
C675        C680   1.396   1_554  A
C675        H682   1.083       .  S
C676       C1501   1.429   1_545  A
C677        C678   1.412       .  A
C677       C1500   1.429       .  A
C677        F684   1.351       .  S
C678        C679   1.402   1_554  A
C678        H683   1.084   1_554  S
C679       C1504   1.407       .  A
C680       C1503   1.407   1_545  A
C680        F681   1.359       .  S
C685        C686   1.398   1_554  A
C685        C690   1.417       .  A
C685        H692   1.081   1_554  S
C686        C687   1.410       .  A
C687        C688   1.401   1_556  A
C687        F694   1.359       .  S
C688        C689   1.415       .  A
C688        H693   1.071       .  S
C689        C690   1.439       .  A
C690        F691   1.353       .  S
C695        C696   1.416       .  A
C695       C1524   1.399       .  A
C695        H702   1.080       .  S
C696        C697   1.408       .  A
C697       C1522   1.429       .  A
C697        F704   1.356       .  S
C698        C699   1.436       .  A
C698       C1521   1.429   1_545  A
C698        H703   1.082       .  S
C699        C700   1.417       .  A
C700       C1519   1.399   1_545  A
C700        F701   1.351       .  S
C705        C706   1.391       .  A
C705        C710   1.394       .  A
C705        H712   1.084       .  S
C706        C707   1.406       .  A
C707        C708   1.412       .  A
C707        F714   1.357       .  S
C708        C709   1.421       .  A
C708        H713   1.083       .  S
C709        C710   1.437       .  A
C710        F711   1.353       .  S
C715        C720   1.383       .  A
C715       C2364   1.419       .  A
C715        H722   1.083       .  S
C716        C717   1.421       .  A
C716       C2363   1.419       .  A
C717        C718   1.404       .  A
C717        F724   1.354       .  S
C718       C2367   1.401   1_455  A
C718        H723   1.083       .  S
C719        C720   1.394       .  A
C719       C2366   1.401       .  A
C720        F721   1.359   1_554  S
C725        C726   1.416       .  A
C725        C730   1.379       .  A
C725        H732   1.069       .  S
C726        C727   1.430       .  A
C727        C728   1.410       .  A
C727        F734   1.355       .  S
C728        C729   1.400       .  A
C728        H733   1.081       .  S
C729        C730   1.393       .  A
C730        F731   1.359   1_554  S
C735        C736   1.418       .  A
C735        C740   1.406       .  A
C735        H742   1.062       .  S
C736       C2385   1.446   1_455  A
C737        C738   1.399       .  A
C737       C2384   1.446       .  A
C737        F744   1.355       .  S
C738        C739   1.389       .  A
C738        H743   1.084       .  S
C739       C2388   1.401       .  A
C740       C2387   1.401   1_455  A
C740        F741   1.358       .  S
C745        C746   1.400       .  A
C745        C750   1.409       .  A
C745        H752   1.081       .  S
C746        C747   1.392       .  A
C747        C748   1.394       .  A
C747        F754   1.358       .  S
C748        C749   1.426       .  A
C748        H753   1.075       .  S
C749        C750   1.421       .  A
C750        F751   1.357       .  S
C755        C756   1.416       .  A
C755       C1584   1.408   1_545  A
C755        H762   1.083   1_545  S
C756       C2405   1.430       .  A
C757        C758   1.389       .  A
C757       C2404   1.430       .  A
C757        F764   1.357       .  S
C758       C1583   1.390   1_545  A
C758        H763   1.085       .  S
C759       C1582   1.390       .  A
C759       C2408   1.405       .  A
C760       C1579   1.408       .  A
C760       C2407   1.405       .  A
C760        F761   1.357       .  S
C765        C770   1.417       .  A
C765       C2414   1.406   1_455  A
C765        H772   1.081       .  S
C766        C767   1.405       .  A
C766       C2413   1.406       .  A
C767        C768   1.397       .  A
C767        F774   1.358       .  S
C768       C2417   1.422       .  A
C768        H773   1.084       .  S
C769        C770   1.426       .  A
C769       C2416   1.422       .  A
C770        F771   1.354       .  S
C775        C780   1.398       .  A
C775       C1600   1.398       .  A
C775        H782   1.083       .  S
C776        C777   1.409       .  A
C776       C1599   1.398       .  A
C777        C778   1.411       .  A
C777        F784   1.355       .  S
C778       C1603   1.414       .  A
C778        H783   1.080       .  S
C779        C780   1.427       .  A
C779       C1602   1.414   1_545  A
C780        F781   1.358       .  S
C785        C786   1.405       .  A
C785       C1614   1.395       .  A
C785        H792   1.073       .  S
C786        C787   1.439       .  A
C787        C788   1.412       .  A
C787        F794   1.357       .  S
C788        C789   1.396       .  A
C788        H793   1.083   1_556  S
C789       C1141   1.495   1_556  S
C789       C1614   1.413       .  A
C790       C1609   1.395       .  A
C790       C1613   1.413       .  A
C790        F791   1.357   1_565  S
C795        C796   1.419       .  A
C795       C1624   1.400       .  A
C795        H802   1.077       .  S
C796        C797   1.419       .  A
C797        C798   1.393       .  A
C797        F804   1.358       .  S
C798       C1623   1.403       .  A
C798        H803   1.083       .  S
C799       C1847   1.482       .  S
C799        C800   1.400       .  A
C799       C1622   1.403       .  A
C800       C1619   1.400       .  A
C800        F801   1.356   1_565  S
C805        C806   1.426       .  A
C805        C810   1.408       .  A
C805        H812   1.076       .  S
C806        C807   1.429       .  A
C807        C808   1.411       .  A
C807        F814   1.358       .  S
C808        C809   1.404       .  A
C808        H813   1.083       .  S
C809        C810   1.399       .  A
C810        F811   1.354       .  S
C815        C816   1.420       .  A
C815       C2468   1.395       .  A
C815        H822   1.077       .  S
C816        C817   1.420       .  A
C817        C818   1.396       .  A
C817        F824   1.359       .  S
C818        C819   1.401       .  A
C818        H823   1.084       .  S
C819       C1903   1.471       .  S
C819       C2468   1.399       .  A
C820       C2463   1.395       .  A
C820       C2467   1.399       .  A
C820        F821   1.358   1_655  S
C825       C1610   1.583       .  S
C825       C1620   1.562       .  S
C825       C1630   1.596       .  S
C825       C1640   1.562       .  S
O826       Zr838   2.330       .  S
O826        C828   1.267       .  A
O827       Zr864   2.421       .  S
O827        C828   1.291       .  A
O829       Zr841   2.414       .  S
O829        C831   1.285       .  A
O830       Zr865   2.385       .  S
O830        C831   1.277       .  A
O832       Zr841   2.465       .  S
O832        C834   1.293       .  A
O833       Zr864   2.441       .  S
O833        C834   1.290       .  A
C834       C1600   1.492   1_565  S
O835       Zr838   2.430       .  S
O835        C837   1.283       .  A
O836       Zr865   2.431       .  S
O836        C837   1.287       .  A
C837       C1583   1.470       .  S
Zr838       O844   2.393       .  S
Zr838       O845   2.332       .  S
Zr838       O868   2.325       .  S
Zr838       O870   2.380       .  S
Zr838      O2488   2.438       .  S
O839        H882   0.989       .  S
O840      Zr2486   2.438   1_455  S
O840        H881   0.990       .  S
O840        H885   0.990       .  S
Zr841       O845   2.377       .  S
Zr841       O844   2.356       .  S
Zr841       O869   2.350       .  S
Zr841       O871   2.381       .  S
Zr841       O843   2.434       .  S
O842        H883   0.990       .  S
O842        H886   0.990       .  S
O843        H876   0.990       .  S
O844       Zr864   2.395       .  S
O845       Zr865   2.378       .  S
O845        H872   0.966       .  S
O846       Zr858   2.358       .  S
O846        C848   1.271       .  A
O847       Zr865   2.386       .  S
O847        C848   1.284       .  A
C848       C2736   1.415       .  S
O849       Zr861   2.369       .  S
O849        C851   1.274       .  A
O850       Zr864   2.436       .  S
O850        C851   1.293       .  A
C851       C1270   1.441       .  S
O852       Zr861   2.429       .  S
O852        C854   1.283       .  A
O853       Zr865   2.445       .  S
O853        C854   1.289       .  A
C854       C1570   1.473       .  S
O855       Zr858   2.426       .  S
O855        C857   1.283       .  A
O856       Zr864   2.481       .  S
O856        C857   1.296       .  A
C857       C1590   1.497       .  S
Zr858       O866   2.389       .  S
Zr858       O867   2.341       .  S
Zr858       O870   2.335       .  S
Zr858       O868   2.376       .  S
Zr858       O859   2.413       .  S
Zr858      O2508   2.435       .  S
O859        H879   0.987       .  S
O859        H884   0.990       .  S
O860      Zr2506   2.435   1_455  S
O860        H880   0.991       .  S
Zr861       O867   2.392       .  S
Zr861       O866   2.353       .  S
Zr861       O871   2.351       .  S
Zr861       O869   2.371       .  S
Zr861       O862   2.436       .  S
Zr861       O863   2.437       .  S
O862        H878   0.990       .  S
O863        H877   0.990       .  S
O863        H887   0.990       .  S
Zr864       O867   2.377       .  S
Zr864       O869   2.385       .  S
Zr864       O870   2.378       .  S
Zr865       O866   2.381       .  S
Zr865       O868   2.363       .  S
Zr865       O871   2.377       .  S
O866        H874   0.966       .  S
O869        H873   0.965       .  S
O870        H875   0.965       .  S
O888       Zr900   2.362       .  S
O888        C890   1.272       .  A
O889       Zr926   2.380       .  S
O889        C890   1.280       .  A
C890       C2756   1.415       .  S
O891       Zr903   2.363       .  S
O891        C893   1.274       .  A
O892       Zr927   2.408       .  S
O892        C893   1.287       .  A
C893       C1267   1.430       .  S
O894       Zr903   2.403       .  S
O894        C896   1.281       .  A
O895       Zr926   2.441       .  S
O895        C896   1.286       .  A
C896       C1553   1.470   1_556  S
O897       Zr900   2.437       .  S
O897        C899   1.285       .  A
O898       Zr927   2.447       .  S
O898        C899   1.290       .  A
C899       C1563   1.484       .  S
Zr900       O906   2.383       .  S
Zr900       O907   2.344       .  S
Zr900       O930   2.335       .  S
Zr900       O932   2.384       .  S
Zr900       O901   2.437       .  S
Zr900      O2550   2.440       .  S
O901        H944   0.990       .  S
O902      Zr2548   2.440   1_455  S
O902        H943   0.990       .  S
O902        H947   0.990       .  S
Zr903       O907   2.382       .  S
Zr903       O906   2.348       .  S
Zr903       O931   2.350       .  S
Zr903       O933   2.364       .  S
Zr903       O904   2.429       .  S
Zr903       O905   2.434       .  S
O904        H945   0.990       .  S
O904        H948   0.990       .  S
O905        H938   0.990       .  S
O906       Zr926   2.377       .  S
O907       Zr927   2.379       .  S
O907        H934   0.966       .  S
O908       Zr920   2.344       .  S
O908        C910   1.270       .  A
O909       Zr927   2.411       .  S
O909        C910   1.287       .  A
C910       C2665   1.423       .  S
O911       Zr923   2.428       .  S
O911        C913   1.288       .  A
O912       Zr926   2.374       .  S
O912        C913   1.276       .  A
C913       C1147   1.433   1_556  S
O914       Zr923   2.472       .  S
O914        C916   1.292       .  A
O915       Zr927   2.423       .  S
O915        C916   1.288       .  A
C916       C1530   1.488       .  S
O917       Zr920   2.419       .  S
O917        C919   1.283       .  A
O918       Zr926   2.420       .  S
O918        C919   1.283       .  A
C919       C1543   1.460   1_556  S
Zr920       O928   2.376       .  S
Zr920       O929   2.327       .  S
Zr920       O932   2.338       .  S
Zr920       O930   2.372       .  S
Zr920       O921   2.428       .  S
Zr920      O2570   2.435       .  S
O921        H941   0.989       .  S
O921        H946   0.990       .  S
O922      Zr2568   2.435   1_455  S
O922        H942   0.991       .  S
Zr923       O929   2.377       .  S
Zr923       O928   2.361       .  S
Zr923       O933   2.346       .  S
Zr923       O931   2.378       .  S
Zr923       O924   2.434       .  S
Zr923       O925   2.430       .  S
O924        H940   0.990       .  S
O925        H939   0.990       .  S
O925        H949   0.990       .  S
Zr926       O929   2.377       .  S
Zr926       O931   2.384       .  S
Zr926       O932   2.380       .  S
Zr927       O928   2.388       .  S
Zr927       O930   2.361       .  S
Zr927       O933   2.371       .  S
O928        H936   0.966       .  S
O931        H935   0.966       .  S
O932        H937   0.965       .  S
O950       Zr962   2.336       .  S
O950        C952   1.264       .  A
O951       Zr988   2.512       .  S
O951        C952   1.311       .  A
O953       Zr965   2.354       .  S
O953        C955   1.271       .  A
O954       Zr989   2.441       .  S
O954        C955   1.289       .  A
C955       C1085   1.430       .  S
O956       Zr965   2.397       .  S
O956        C958   1.279       .  A
O957       Zr988   2.515       .  S
O957        C958   1.305       .  A
C958       C1510   1.506       .  S
O959       Zr962   2.380       .  S
O959        C961   1.274       .  A
O960       Zr989   2.498       .  S
O960        C961   1.299       .  A
C961       C1503   1.486       .  S
Zr962       O968   2.364       .  S
Zr962       O969   2.348       .  S
Zr962       O992   2.341       .  S
Zr962       O994   2.374       .  S
Zr962       O963   2.436       .  S
O963       H1006   0.991   1_556  S
O964       H1005   0.990       .  S
O964       H1009   0.990       .  S
Zr965       O969   2.373       .  S
Zr965       O968   2.336       .  S
Zr965       O993   2.344       .  S
Zr965       O995   2.367       .  S
Zr965       O966   2.431   1_556  S
Zr965       O967   2.436       .  S
O966       H1007   0.990       .  S
O966       H1010   0.990       .  S
O967       H1000   0.990       .  S
O968       Zr988   2.369       .  S
O969       Zr989   2.391       .  S
O969        H996   0.965       .  S
O970       Zr982   2.375       .  S
O970        C972   1.273       .  A
O971       Zr989   2.424       .  S
O971        C972   1.286       .  A
O973       Zr985   2.362       .  S
O973        C975   1.272       .  A
O974       Zr988   2.465       .  S
O974        C975   1.295       .  A
C975       C1290   1.447       .  S
O976       Zr985   2.419       .  S
O976        C978   1.283       .  A
O977       Zr989   2.513       .  S
O977        C978   1.303       .  A
C978       C1493   1.512       .  S
O979       Zr982   2.395       .  S
O979        C981   1.279       .  A
O980       Zr988   2.549       .  S
O980        C981   1.310       .  A
C981       C1520   1.532       .  S
Zr982       O990   2.371       .  S
Zr982       O991   2.342       .  S
Zr982       O994   2.361       .  S
Zr982       O992   2.366       .  S
Zr982       O983   2.438       .  S
O983       H1003   0.990       .  S
O983       H1008   0.990   1_565  S
O984       H1004   0.990       .  S
Zr985       O991   2.362       .  S
Zr985       O990   2.344       .  S
Zr985       O995   2.347       .  S
Zr985       O993   2.370       .  S
Zr985       O986   2.431       .  S
Zr985       O987   2.433       .  S
O986       H1002   0.991       .  S
O987       H1001   0.990       .  S
O987       H1011   0.990       .  S
Zr988       O991   2.387       .  S
Zr988       O993   2.414       .  S
Zr988       O994   2.416       .  S
Zr989       O990   2.395       .  S
Zr989       O992   2.409       .  S
Zr989       O995   2.402       .  S
O990        H998   0.965       .  S
O993        H997   0.966       .  S
O994        H999   0.966   1_565  S
C1012      C1453   1.599       .  S
C1012      C1460   1.556       .  S
C1012      C1470   1.609       .  S
C1012      C1483   1.598       .  S
C1013      C1410   1.593       .  S
C1013      C1423   1.584       .  S
C1013      C1430   1.597       .  S
C1013      C1440   1.616       .  S
C1014      C1370   1.590       .  S
C1014      C1380   1.589       .  S
C1014      C1390   1.568       .  S
C1014      C1400   1.612       .  S
O1015     Zr2675   2.357       .  S
O1015      C2665   1.271       .  A
O1016     Zr1053   2.405       .  S
O1016      C1017   1.287   1_455  A
C1017      O2663   1.271       .  A
C1017      C2558   1.423       .  S
O1018     Zr2678   2.330       .  S
O1018      C1020   1.267       .  A
O1019     Zr1054   2.421       .  S
O1019      C2668   1.291   1_455  A
C1020      O2667   1.291       .  A
O1021     Zr2678   2.411       .  S
O1021      C2671   1.282       .  A
O1022     Zr1053   2.439       .  S
O1022      C1023   1.288   1_455  A
C1023      O2669   1.282       .  A
C1023      C3271   1.482       .  S
O1024     Zr2675   2.434       .  S
O1024      C2674   1.285       .  A
O1025     Zr1054   2.451       .  S
O1025      C1026   1.290       .  A
C1026      O2672   1.285       .  A
C1026      C3041   1.483   1_455  S
Zr1027     O2663   2.357   1_455  S
Zr1027     O2672   2.434       .  S
Zr1027     O1033   2.385       .  S
Zr1027     O1034   2.340       .  S
Zr1027     O1057   2.342       .  S
Zr1027     O1059   2.384       .  S
Zr1027     O2676   2.435   1_455  S
Zr1027     O1029   2.435       .  S
O1028     Zr2675   2.435       .  S
O1028      H1071   0.990       .  S
O1029      H1070   0.990       .  S
O1029      H2722   0.990       .  S
Zr1030     O2666   2.330   1_455  S
Zr1030     O2669   2.411   1_455  S
Zr1030     O1034   2.377       .  S
Zr1030     O1033   2.334       .  S
Zr1030     O1058   2.330       .  S
Zr1030     O1060   2.388       .  S
Zr1030     O2679   2.436   1_455  S
O1031     Zr2678   2.436       .  S
O1031      H1072   0.990       .  S
O1031      H1075   0.990       .  S
O1032      H1065   0.990       .  S
O1033     Zr1053   2.366       .  S
O1034     Zr1054   2.372       .  S
O1034      H2709   0.965   1_455  S
O1035     Zr1047   2.359       .  S
O1035      C1037   1.272       .  A
O1036     Zr1054   2.426       .  S
O1036      C1037   1.291       .  A
C1037      C1211   1.433       .  S
O1038     Zr1050   2.438       .  S
O1038      C1040   1.290       .  A
O1039     Zr1053   2.375       .  S
O1039      C1040   1.276       .  A
O1041     Zr1050   2.499       .  S
O1041      C1043   1.299       .  A
O1042     Zr1054   2.435       .  S
O1042      C1043   1.288       .  A
O1044     Zr1047   2.401       .  S
O1044      C1046   1.279       .  A
O1045     Zr1053   2.462       .  S
O1045      C1046   1.292       .  A
C1046      C1450   1.497       .  S
Zr1047     O1055   2.369       .  S
Zr1047     O1056   2.347       .  S
Zr1047     O1059   2.350       .  S
Zr1047     O1057   2.380       .  S
Zr1047     O1048   2.438       .  S
Zr1047     O1049   2.436       .  S
O1048      H1068   0.990       .  S
O1048      H1073   0.990       .  S
O1049      H1069   0.990       .  S
Zr1050     O1056   2.384       .  S
Zr1050     O1055   2.346       .  S
Zr1050     O1060   2.360       .  S
Zr1050     O1058   2.376       .  S
Zr1050     O1051   2.433       .  S
O1051      H1067   0.990       .  S
O1052      H1066   0.990       .  S
O1052      H1076   0.990       .  S
Zr1053     O1056   2.383       .  S
Zr1053     O1058   2.386       .  S
Zr1053     O1059   2.385       .  S
Zr1054     O1055   2.382       .  S
Zr1054     O1057   2.380       .  S
Zr1054     O1060   2.387       .  S
O1055      H1063   0.965       .  S
O1059      H1064   0.966       .  S
H1061      O2682   0.965       .  S
H1074      O2677   0.990       .  S
O1077     Zr2737   2.441       .  S
O1077      C2727   1.285   1_554  A
O1078     Zr1115   2.414   1_556  S
O1078      C1079   1.283   1_455  A
C1079      O2725   1.285   1_556  A
C1079      C3291   1.471       .  S
O1080     Zr1092   2.481       .  S
O1080      C1082   1.297       .  A
O1081     Zr1116   2.423       .  S
O1081      C1082   1.286       .  A
C1082      C1413   1.506       .  S
O1083     Zr1092   2.443       .  S
O1083      C1085   1.292   1_554  A
O1084     Zr1115   2.372   1_556  S
O1084      C1085   1.273       .  A
O1086     Zr2737   2.345       .  S
O1086      C2736   1.270       .  A
O1087     Zr1116   2.397       .  S
O1087      C1088   1.284       .  A
C1088      O2734   1.270   1_455  A
C1088      C2496   1.415   1_455  S
Zr1089     O2725   2.441   1_455  S
Zr1089     O2734   2.345   1_455  S
Zr1089     O1095   2.328       .  S
Zr1089     O1096   2.383       .  S
Zr1089     O1119   2.377       .  S
Zr1089     O1121   2.340       .  S
Zr1089     O1090   2.430       .  S
Zr1089     O2739   2.440   1_455  S
O1090      H1133   0.990       .  S
O1091     Zr2737   2.440       .  S
O1091      H1132   0.990       .  S
O1091      H1136   0.990       .  S
Zr1092     O1096   2.356       .  S
Zr1092     O1095   2.372       .  S
Zr1092     O1120   2.377       .  S
Zr1092     O1122   2.351       .  S
Zr1092     O1093   2.437       .  S
Zr1092     O1094   2.429       .  S
O1093      H1134   0.990       .  S
O1093      H1137   0.990       .  S
O1094      H1127   0.990       .  S
O1095     Zr1115   2.385       .  S
O1096     Zr1116   2.399       .  S
O1096      H1123   0.966       .  S
O1097     Zr2757   2.428       .  S
O1097      C2747   1.284       .  A
O1098     Zr1116   2.447       .  S
O1098      C1099   1.289       .  A
C1099      O2745   1.284   1_455  A
C1099      C3031   1.474   1_455  S
O1100     Zr1112   2.396       .  S
O1100      C1102   1.279   1_554  A
O1101     Zr1115   2.456   1_556  S
O1101      C1102   1.290       .  A
C1102      C1463   1.479       .  S
O1103     Zr1112   2.353       .  S
O1103      C1105   1.270       .  A
O1104     Zr1116   2.414       .  S
O1104      C1105   1.287       .  A
C1105      C1214   1.429       .  S
O1106     Zr2757   2.358       .  S
O1106      C2756   1.273   1_554  A
O1107     Zr1115   2.383   1_556  S
O1107      C1108   1.282   1_455  A
C1108      O2754   1.273   1_556  A
C1108      C2538   1.415       .  S
Zr1109     O2745   2.428   1_455  S
Zr1109     O2754   2.358   1_455  S
Zr1109     O1117   2.348       .  S
Zr1109     O1118   2.387       .  S
Zr1109     O1121   2.380       .  S
Zr1109     O1119   2.334       .  S
Zr1109     O1110   2.435       .  S
Zr1109     O2759   2.434   1_455  S
O1110      H1130   0.990       .  S
O1110      H2783   0.990   1_455  S
O1111     Zr2757   2.434       .  S
O1111      H1131   0.990       .  S
Zr1112     O1118   2.352       .  S
Zr1112     O1117   2.378       .  S
Zr1112     O1122   2.368       .  S
Zr1112     O1120   2.352       .  S
Zr1112     O1113   2.435       .  S
Zr1112     O1114   2.439       .  S
O1113      H1129   0.990       .  S
O1114      H1128   0.990       .  S
O1114      H1138   0.990       .  S
Zr1115     O1118   2.377       .  S
Zr1115     O1120   2.381       .  S
Zr1115     O1121   2.377       .  S
Zr1116     O1117   2.377       .  S
Zr1116     O1119   2.366       .  S
Zr1116     O1122   2.369       .  S
O1117      H1125   0.966       .  S
O1120      H1124   0.966       .  S
O1121      H2774   0.965   1_455  S
H1126      O2769   0.965       .  S
H1135      O2758   0.990       .  S
O1140     Zr1177   2.511       .  S
O1140      C1141   1.301       .  A
O1142     Zr1154   2.410       .  S
O1142      C1144   1.281       .  A
O1143     Zr1178   2.519       .  S
O1143      C1144   1.304       .  A
C1144      C1473   1.519   1_554  S
O1145     Zr1154   2.408       .  S
O1145      C1147   1.274       .  A
O1146     Zr1177   2.405       .  S
O1146      C1147   1.278       .  A
O1149     Zr1178   2.514       .  S
O1149      C1150   1.310       .  A
Zr1151     O1157   2.321       .  S
Zr1151     O1158   2.373       .  S
Zr1151     O1181   2.370       .  S
Zr1151     O1183   2.346       .  S
Zr1151     O1152   2.433   1_554  S
O1152      H1195   0.991       .  S
O1153      H1194   0.989       .  S
O1153      H1198   0.990       .  S
Zr1154     O1158   2.360       .  S
Zr1154     O1157   2.351       .  S
Zr1154     O1182   2.370       .  S
Zr1154     O1184   2.360       .  S
Zr1154     O1155   2.432   1_554  S
Zr1154     O1156   2.431       .  S
O1155      H1196   0.990       .  S
O1155      H1199   0.990       .  S
O1156      H1189   0.990       .  S
O1157     Zr1177   2.374       .  S
O1158     Zr1178   2.394       .  S
O1158      H1185   0.964       .  S
O1160     Zr1178   2.557       .  S
O1160      C1161   1.312       .  A
O1162     Zr1174   2.411       .  S
O1162      C1164   1.282       .  A
O1163     Zr1177   2.492       .  S
O1163      C1164   1.300       .  A
C1164      C1373   1.501       .  S
O1165     Zr1174   2.382       .  S
O1165      C1167   1.276       .  A
O1166     Zr1178   2.464       .  S
O1166      C1167   1.295       .  A
C1167      C1231   1.449       .  S
O1169     Zr1177   2.406       .  S
O1169      C1170   1.283       .  A
Zr1171     O1179   2.348       .  S
Zr1171     O1180   2.360       .  S
Zr1171     O1183   2.354       .  S
Zr1171     O1181   2.356       .  S
Zr1171     O1172   2.440       .  S
O1172      H1192   0.990       .  S
O1173      H1193   0.990       .  S
Zr1174     O1180   2.352       .  S
Zr1174     O1179   2.357       .  S
Zr1174     O1184   2.369       .  S
Zr1174     O1182   2.350       .  S
Zr1174     O1175   2.433       .  S
Zr1174     O1176   2.435       .  S
O1175      H1191   0.991       .  S
O1176      H1190   0.990       .  S
O1176      H1200   0.990       .  S
Zr1177     O1180   2.383       .  S
Zr1177     O1182   2.421       .  S
Zr1177     O1183   2.401       .  S
Zr1178     O1179   2.403       .  S
Zr1178     O1181   2.406       .  S
Zr1178     O1184   2.421       .  S
O1179      H1187   0.963       .  S
O1182      H1186   0.966       .  S
C1201      C1360   1.604       .  S
C1201      C1513   1.599       .  S
C1201      C1550   1.571       .  S
C1201      C1573   1.582       .  S
C1202      C1353   1.629       .  S
C1202      C1490   1.578       .  S
C1202      C1560   1.600       .  S
C1202      C1593   1.581       .  S
O1203     Zr1215   2.430       .  S
O1203      C1205   1.285       .  A
O1204     Zr1241   2.523       .  S
O1204      C1205   1.304       .  A
C1205      C1350   1.534       .  S
O1206     Zr1218   2.451       .  S
O1206      C1208   1.288       .  A
O1207     Zr1242   2.470       .  S
O1207      C1208   1.294       .  A
C1208      C1330   1.498       .  S
O1209     Zr1218   2.359       .  S
O1209      C1211   1.272       .  A
O1210     Zr1241   2.425       .  S
O1210      C1211   1.291       .  A
O1212     Zr1215   2.357       .  S
O1212      C1214   1.272       .  A
O1213     Zr1242   2.419       .  S
O1213      C1214   1.289       .  A
Zr1215     O1221   2.338       .  S
Zr1215     O1222   2.387       .  S
Zr1215     O1245   2.384       .  S
Zr1215     O1247   2.348       .  S
Zr1215     O1216   2.435       .  S
Zr1215     O1217   2.437       .  S
O1216      H1259   0.990       .  S
O1217      H1258   0.990       .  S
O1217      H1262   0.990       .  S
Zr1218     O1222   2.345       .  S
Zr1218     O1221   2.385       .  S
Zr1218     O1246   2.392       .  S
Zr1218     O1248   2.341       .  S
Zr1218     O1219   2.438       .  S
Zr1218     O1220   2.437       .  S
O1219      H1260   0.990       .  S
O1219      H1263   0.990       .  S
O1220      H1253   0.990       .  S
O1221     Zr1241   2.377       .  S
O1222     Zr1242   2.383       .  S
O1222      H1249   0.966       .  S
O1223     Zr1235   2.442       .  S
O1223      C1225   1.289       .  A
O1224     Zr1242   2.483       .  S
O1224      C1225   1.296       .  A
C1225      C1363   1.510       .  S
O1226     Zr1238   2.500       .  S
O1226      C1228   1.300       .  A
O1227     Zr1241   2.473       .  S
O1227      C1228   1.297       .  A
C1228      C1343   1.522       .  S
O1229     Zr1238   2.457       .  S
O1229      C1231   1.294       .  A
O1230     Zr1242   2.400       .  S
O1230      C1231   1.280       .  A
O1232     Zr1235   2.394       .  S
O1232      C1234   1.279       .  A
O1233     Zr1241   2.443       .  S
O1233      C1234   1.293       .  A
C1234      C1287   1.456       .  S
Zr1235     O1243   2.358       .  S
Zr1235     O1244   2.376       .  S
Zr1235     O1247   2.388       .  S
Zr1235     O1245   2.356       .  S
Zr1235     O1236   2.437       .  S
Zr1235     O1237   2.435       .  S
O1236      H1256   0.990       .  S
O1236      H1261   0.990       .  S
O1237      H1257   0.990       .  S
Zr1238     O1244   2.361       .  S
Zr1238     O1243   2.387       .  S
Zr1238     O1248   2.379       .  S
Zr1238     O1246   2.363       .  S
Zr1238     O1239   2.433       .  S
Zr1238     O1240   2.436       .  S
O1239      H1255   0.990       .  S
O1240      H1254   0.990       .  S
O1240      H1264   0.990       .  S
Zr1241     O1244   2.388       .  S
Zr1241     O1246   2.410       .  S
Zr1241     O1247   2.385       .  S
Zr1242     O1243   2.397       .  S
Zr1242     O1245   2.388       .  S
Zr1242     O1248   2.390       .  S
O1243      H1251   0.966       .  S
O1246      H1250   0.966       .  S
O1247      H1252   0.966       .  S
O1265     Zr1277   2.369       .  S
O1265      C1267   1.274       .  A
O1266     Zr1303   2.406       .  S
O1266      C1267   1.286       .  A
O1268     Zr1280   2.364       .  S
O1268      C1270   1.274       .  A
O1269     Zr1304   2.442       .  S
O1269      C1270   1.294       .  A
O1271     Zr1280   2.455       .  S
O1271      C1273   1.289       .  A
O1272     Zr1303   2.463       .  S
O1272      C1273   1.294       .  A
C1273      C1633   1.502       .  S
O1274     Zr1277   2.438       .  S
O1274      C1276   1.287       .  A
O1275     Zr1304   2.515       .  S
O1275      C1276   1.301       .  A
C1276      C1403   1.533       .  S
Zr1277     O1283   2.388       .  S
Zr1277     O1284   2.342       .  S
Zr1277     O1307   2.349       .  S
Zr1277     O1309   2.382       .  S
Zr1277     O1278   2.435       .  S
Zr1277     O1279   2.437       .  S
O1278      H1321   0.990       .  S
O1279      H1320   0.990       .  S
O1279      H1324   0.990       .  S
Zr1280     O1284   2.385       .  S
Zr1280     O1283   2.344       .  S
Zr1280     O1308   2.332       .  S
Zr1280     O1310   2.396       .  S
Zr1280     O1281   2.436       .  S
Zr1280     O1282   2.429       .  S
O1281      H1322   0.990       .  S
O1281      H1325   0.990       .  S
O1282      H1315   0.990       .  S
O1283     Zr1303   2.378       .  S
O1284     Zr1304   2.389       .  S
O1284      H1311   0.965       .  S
O1285     Zr1297   2.398       .  S
O1285      C1287   1.280       .  A
O1286     Zr1304   2.444       .  S
O1286      C1287   1.294       .  A
O1288     Zr1300   2.450       .  S
O1288      C1290   1.294       .  A
O1289     Zr1303   2.402       .  S
O1289      C1290   1.280       .  A
O1291     Zr1300   2.490       .  S
O1291      C1293   1.299       .  A
O1292     Zr1304   2.486       .  S
O1292      C1293   1.298       .  A
C1293      C1443   1.530       .  S
O1294     Zr1297   2.451       .  S
O1294      C1296   1.289       .  A
O1295     Zr1303   2.478       .  S
O1295      C1296   1.296       .  A
C1296      C1480   1.500       .  S
Zr1297     O1305   2.381       .  S
Zr1297     O1306   2.360       .  S
Zr1297     O1309   2.354       .  S
Zr1297     O1307   2.394       .  S
Zr1297     O1298   2.437       .  S
Zr1297     O1299   2.431       .  S
O1298      H1318   0.990       .  S
O1298      H1323   0.990       .  S
O1299      H1319   0.989       .  S
Zr1300     O1306   2.387       .  S
Zr1300     O1305   2.358       .  S
Zr1300     O1310   2.364       .  S
Zr1300     O1308   2.373       .  S
Zr1300     O1301   2.433       .  S
Zr1300     O1302   2.436       .  S
O1301      H1317   0.990       .  S
O1302      H1316   0.990       .  S
O1302      H1326   0.990       .  S
Zr1303     O1306   2.391       .  S
Zr1303     O1308   2.385       .  S
Zr1303     O1309   2.390       .  S
Zr1304     O1305   2.398       .  S
Zr1304     O1307   2.395       .  S
Zr1304     O1310   2.406       .  S
O1305      H1313   0.965       .  S
O1308      H1312   0.965       .  S
O1309      H1314   0.966       .  S
C1327      C1340   1.604       .  S
C1327      C1523   1.600       .  S
C1327      C1533   1.585       .  S
C1327      C1603   1.565       .  S
C1328      C1333   1.577       .  S
C1328      C1500   1.574       .  S
C1328      C1540   1.555       .  S
C1328      C1580   1.567       .  S
C1329      C1330   1.404       .  A
C1329      C1334   1.413       .  A
C1329      H1336   1.083       .  S
C1330      C1331   1.405       .  A
C1331      C1332   1.404       .  A
C1331      F1338   1.358       .  S
C1332      C1333   1.418       .  A
C1332      H1337   1.082       .  S
C1333      C1334   1.427       .  A
C1334      F1335   1.354       .  S
C1339      C1340   1.422       .  A
C1339      C1344   1.423       .  A
C1339      H1346   1.078       .  S
C1340      C1341   1.433       .  A
C1341      C1342   1.413       .  A
C1341      F1348   1.358       .  S
C1342      C1343   1.403       .  A
C1342      H1347   1.083       .  S
C1343      C1344   1.412       .  A
C1344      F1345   1.355       .  S
C1349      C1350   1.410       .  A
C1349      C1354   1.430       .  A
C1349      H1356   1.083       .  S
C1350      C1351   1.414       .  A
C1351      C1352   1.403       .  A
C1351      F1358   1.358       .  S
C1352      C1353   1.424       .  A
C1352      H1357   1.077       .  S
C1353      C1354   1.439       .  A
C1354      F1355   1.351       .  S
C1359      C1360   1.430       .  A
C1359      C1364   1.420       .  A
C1359      H1366   1.082       .  S
C1360      C1361   1.429       .  A
C1361      C1362   1.399       .  A
C1361      F1368   1.346       .  S
C1362      C1363   1.400       .  A
C1362      H1367   1.084       .  S
C1363      C1364   1.407       .  A
C1364      F1365   1.357       .  S
C1369      C1370   1.430       .  A
C1369      C1374   1.406       .  A
C1369      H1376   1.068       .  S
C1370      C1371   1.421       .  A
C1371      C1372   1.405       .  A
C1371      F1378   1.356       .  S
C1372      C1373   1.410       .  A
C1372      H1377   1.083       .  S
C1373      C1374   1.396       .  A
C1374      F1375   1.358       .  S
C1379      C1380   1.430       .  A
C1379      C3032   1.393       .  A
C1379      H1386   1.082       .  S
C1380      C1381   1.419       .  A
C1381      C1382   1.412       .  A
C1381      F1388   1.345       .  S
C1382      C1383   1.400       .  A
C1382      H1387   1.082       .  S
C1383      C2747   1.474       .  S
C1383      C3032   1.391       .  A
C1384      C3027   1.393       .  A
C1384      C3031   1.391       .  A
C1384      F1385   1.358   1_655  S
C1389      C1390   1.416       .  A
C1389      C1394   1.411       .  A
C1389      H1396   1.081       .  S
C1390      C1391   1.423       .  A
C1391      C1392   1.393       .  A
C1391      F1398   1.359       .  S
C1392      C1393   1.397       .  A
C1392      H1397   1.084       .  S
C1393      C2674   1.483       .  S
C1393      C1394   1.407       .  A
C1394      F3043   1.356       .  S
F1395      C3042   1.356       .  S
C1399      C1400   1.422       .  A
C1399      C1404   1.398       .  A
C1399      H1406   1.077       .  S
C1400      C1401   1.431       .  A
C1401      C1402   1.432       .  A
C1401      F1408   1.358       .  S
C1402      C1403   1.415       .  A
C1402      H1407   1.082       .  S
C1403      C1404   1.414       .  A
C1404      F1405   1.358       .  S
C1409      C1410   1.425       .  A
C1409      C1414   1.394       .  A
C1409      H1416   1.077       .  S
C1410      C1411   1.418       .  A
C1411      C1412   1.417       .  A
C1411      F1418   1.358       .  S
C1412      C1413   1.415       .  A
C1412      H1417   1.083       .  S
C1413      C1414   1.402       .  A
C1414      F1415   1.358       .  S
C1419      C1420   1.419       .  A
C1419      C1424   1.398       .  A
C1419      H1426   1.080       .  S
C1420      C1421   1.409       .  A
C1421      C1422   1.426       .  A
C1421      F1428   1.356   1_565  S
C1422      C1423   1.433       .  A
C1422      H1427   1.082       .  S
C1423      C1424   1.412       .  A
C1424      F1425   1.354       .  S
C1429      C1430   1.424       .  A
C1429      C1434   1.409       .  A
C1429      H1436   1.072       .  S
C1430      C1431   1.425       .  A
C1431      C1432   1.412       .  A
C1431      F1438   1.358       .  S
C1432      C1433   1.403       .  A
C1433      C1434   1.401       .  A
C1434      F1435   1.358       .  S
C1439      C1440   1.426       .  A
C1439      C1444   1.407       .  A
C1439      H1446   1.065       .  S
C1440      C1441   1.433       .  A
C1441      C1442   1.429       .  A
C1441      F1448   1.356       .  S
C1442      C1443   1.414       .  A
C1442      H1447   1.083       .  S
C1443      C1444   1.405       .  A
C1444      F1445   1.358       .  S
C1449      C1450   1.398       .  A
C1449      C1454   1.410       .  A
C1449      H1456   1.083       .  S
C1450      C1451   1.407       .  A
C1451      C1452   1.389       .  A
C1451      F1458   1.359       .  S
C1452      C1453   1.421       .  A
C1452      H1457   1.074       .  S
C1453      C1454   1.436       .  A
C1454      F1455   1.346       .  S
C1459      C1460   1.424       .  A
C1459      C1464   1.402       .  A
C1459      H1466   1.081       .  S
C1460      C1461   1.413       .  A
C1461      C1462   1.390       .  A
C1461      F1468   1.357       .  S
C1462      C1463   1.406       .  A
C1462      H1467   1.083       .  S
C1463      C1464   1.399       .  A
C1464      F1465   1.357       .  S
C1469      C1470   1.434       .  A
C1469      C1474   1.421       .  A
C1469      H1476   1.065       .  S
C1470      C1471   1.427       .  A
C1471      C1472   1.394       .  A
C1471      F1478   1.353       .  S
C1472      C1473   1.409       .  A
C1472      H1477   1.079       .  S
C1473      C1474   1.401       .  A
C1474      F1475   1.357   1_556  S
C1479      C1480   1.402       .  A
C1479      C1484   1.413       .  A
C1479      H1486   1.083       .  S
C1480      C1481   1.404       .  A
C1481      C1482   1.407       .  A
C1481      F1488   1.357       .  S
C1482      C1483   1.426       .  A
C1482      H1487   1.083       .  S
C1483      C1484   1.431       .  A
C1484      F1485   1.354       .  S
C1489      C1490   1.410       .  A
C1489      C1494   1.402       .  A
C1489      H1496   1.081       .  S
C1490      C1491   1.432       .  A
C1491      C1492   1.416       .  A
C1491      F1498   1.355       .  S
C1492      C1493   1.403       .  A
C1492      H1497   1.083       .  S
C1493      C1494   1.417       .  A
C1494      F1495   1.357       .  S
C1499      C1500   1.416       .  A
C1499      C1504   1.396   1_554  A
C1499      H1506   1.083       .  S
C1501      C1502   1.412       .  A
C1501      F1508   1.351       .  S
C1502      C1503   1.402   1_554  A
C1502      H1507   1.084   1_554  S
C1504      F1505   1.359       .  S
C1509      C1510   1.398   1_554  A
C1509      C1514   1.417       .  A
C1509      H1516   1.081   1_554  S
C1510      C1511   1.410       .  A
C1511      C1512   1.401   1_556  A
C1511      F1518   1.359       .  S
C1512      C1513   1.415       .  A
C1512      H1517   1.071       .  S
C1513      C1514   1.439       .  A
C1514      F1515   1.353       .  S
C1519      C1520   1.416       .  A
C1519      H1526   1.080       .  S
C1520      C1521   1.408       .  A
C1521      F1528   1.356       .  S
C1522      C1523   1.436       .  A
C1522      H1527   1.082       .  S
C1523      C1524   1.417       .  A
C1524      F1525   1.351       .  S
C1529      C1530   1.391       .  A
C1529      C1534   1.394       .  A
C1529      H1536   1.084       .  S
C1530      C1531   1.406       .  A
C1531      C1532   1.412       .  A
C1531      F1538   1.357       .  S
C1532      C1533   1.421       .  A
C1532      H1537   1.083       .  S
C1533      C1534   1.437       .  A
C1534      F1535   1.353       .  S
C1539      C3188   1.419       .  A
C1539      C1544   1.383       .  A
C1539      H1546   1.083       .  S
C1540      C3187   1.419       .  A
C1540      C1541   1.421       .  A
C1541      C1542   1.404       .  A
C1541      F1548   1.354       .  S
C1542      C3191   1.401   1_455  A
C1542      H1547   1.083       .  S
C1543      C3190   1.401       .  A
C1543      C1544   1.394       .  A
C1544      F1545   1.359   1_554  S
C1549      C1550   1.416       .  A
C1549      C1554   1.379       .  A
C1549      H1556   1.069       .  S
C1550      C1551   1.430       .  A
C1551      C1552   1.410       .  A
C1551      F1558   1.355       .  S
C1552      C1553   1.400       .  A
C1552      H1557   1.081       .  S
C1553      C1554   1.393       .  A
C1554      F1555   1.359   1_554  S
C1559      C1560   1.418       .  A
C1559      C1564   1.406       .  A
C1559      H1566   1.062       .  S
C1560      C3209   1.446   1_455  A
C1561      C3208   1.446       .  A
C1561      C1562   1.399       .  A
C1561      F1568   1.355       .  S
C1562      C1563   1.389       .  A
C1562      H1567   1.084       .  S
C1563      C3212   1.401       .  A
C1564      C3211   1.401   1_455  A
C1564      F1565   1.358       .  S
C1569      C1570   1.400       .  A
C1569      C1574   1.409       .  A
C1569      H1576   1.081       .  S
C1570      C1571   1.392       .  A
C1571      C1572   1.394       .  A
C1571      F1578   1.358       .  S
C1572      C1573   1.426       .  A
C1572      H1577   1.075       .  S
C1573      C1574   1.421       .  A
C1574      F1575   1.357       .  S
C1579      C1580   1.416       .  A
C1579      H1586   1.083       .  S
C1580      C3229   1.430       .  A
C1581      C3228   1.430       .  A
C1581      C1582   1.389       .  A
C1581      F1588   1.357       .  S
C1582      H1587   1.085       .  S
C1583      C3232   1.405       .  A
C1584      C3231   1.405       .  A
C1584      F1585   1.357       .  S
C1589      C3238   1.406   1_455  A
C1589      C1594   1.417       .  A
C1589      H1596   1.081       .  S
C1590      C3237   1.406       .  A
C1590      C1591   1.405       .  A
C1591      C1592   1.397       .  A
C1591      F1598   1.358       .  S
C1592      C3241   1.422       .  A
C1592      H1597   1.084       .  S
C1593      C3240   1.422       .  A
C1593      C1594   1.426       .  A
C1594      F1595   1.354       .  S
C1599      C1604   1.398       .  A
C1599      H1606   1.083       .  S
C1600      C1601   1.409   1_545  A
C1601      C1602   1.411       .  A
C1601      F1608   1.355       .  S
C1602      H1607   1.080       .  S
C1603      C1604   1.427       .  A
C1604      F1605   1.358       .  S
C1609      C1610   1.405       .  A
C1609      H1616   1.073       .  S
C1610      C1611   1.439       .  A
C1611      C1612   1.412       .  A
C1611      F1618   1.357       .  S
C1612      C1613   1.396       .  A
C1612      H1617   1.083   1_556  S
C1614      F1615   1.357       .  S
C1619      C1620   1.419       .  A
C1619      H1626   1.077       .  S
C1620      C1621   1.419       .  A
C1621      C1622   1.393       .  A
C1621      F1628   1.358       .  S
C1622      H1627   1.083       .  S
C1623      C2671   1.482       .  S
C1623      C1624   1.400       .  A
C1624      F1625   1.356       .  S
C1629      C1630   1.426       .  A
C1629      C1634   1.408       .  A
C1629      H1636   1.076       .  S
C1630      C1631   1.429       .  A
C1631      C1632   1.411       .  A
C1631      F1638   1.358       .  S
C1632      C1633   1.404       .  A
C1632      H1637   1.083       .  S
C1633      C1634   1.399       .  A
C1634      F1635   1.354       .  S
C1639      C1640   1.420       .  A
C1639      C3292   1.395       .  A
C1639      H1646   1.077       .  S
C1640      C1641   1.420       .  A
C1641      C1642   1.396       .  A
C1641      F1648   1.359       .  S
C1642      C1643   1.401       .  A
C1642      H1647   1.084       .  S
C1643      C2727   1.471       .  S
C1643      C3292   1.399       .  A
C1644      C3287   1.395       .  A
C1644      C3291   1.399       .  A
C1644      F1645   1.358   1_655  S
C1649      C2434   1.583       .  S
C1649      C2444   1.562       .  S
C1649      C2454   1.596       .  S
C1649      C2464   1.562       .  S
O1650     Zr1662   2.330       .  S
O1650      C1652   1.267       .  A
O1651     Zr1688   2.421       .  S
O1651      C1652   1.291       .  A
C1652      C2668   1.419       .  S
O1653     Zr1665   2.414       .  S
O1653      C1655   1.285       .  A
O1654     Zr1689   2.385       .  S
O1654      C1655   1.277       .  A
C1655      C2818   1.423       .  S
O1656     Zr1665   2.465       .  S
O1656      C1658   1.293       .  A
O1657     Zr1688   2.441       .  S
O1657      C1658   1.290       .  A
C1658      C2424   1.492       .  S
O1659     Zr1662   2.430       .  S
O1659      C1661   1.283       .  A
O1660     Zr1689   2.431       .  S
O1660      C1661   1.287       .  A
C1661      C2407   1.470   1_655  S
Zr1662     O1668   2.393       .  S
Zr1662     O1669   2.332       .  S
Zr1662     O1692   2.325       .  S
Zr1662     O1694   2.380       .  S
Zr1662     O2487   2.433       .  S
O1663     Zr2486   2.433   1_545  S
O1663      H1706   0.989       .  S
O1664      H1705   0.990       .  S
O1664      H1709   0.990       .  S
Zr1665     O1669   2.377       .  S
Zr1665     O1668   2.356       .  S
Zr1665     O1693   2.350       .  S
Zr1665     O1695   2.381       .  S
Zr1665     O2490   2.437       .  S
Zr1665     O1667   2.434       .  S
O1666     Zr2489   2.437   1_545  S
O1666      H1707   0.990       .  S
O1666      H1710   0.990       .  S
O1667      H1700   0.990       .  S
O1668     Zr1688   2.395       .  S
O1669     Zr1689   2.378       .  S
O1669      H1696   0.966       .  S
O1670     Zr1682   2.358       .  S
O1670      C1672   1.271       .  A
O1671     Zr1689   2.386       .  S
O1671      C1672   1.284       .  A
O1673     Zr1685   2.369       .  S
O1673      C1675   1.274       .  A
O1674     Zr1688   2.436       .  S
O1674      C1675   1.293       .  A
C1675      C2094   1.441       .  S
O1676     Zr1685   2.429       .  S
O1676      C1678   1.283       .  A
O1677     Zr1689   2.445       .  S
O1677      C1678   1.289       .  A
C1678      C2394   1.473       .  S
O1679     Zr1682   2.426       .  S
O1679      C1681   1.283       .  A
O1680     Zr1688   2.481       .  S
O1680      C1681   1.296       .  A
C1681      C2414   1.497       .  S
Zr1682     O1690   2.389       .  S
Zr1682     O1691   2.341       .  S
Zr1682     O1694   2.335       .  S
Zr1682     O1692   2.376       .  S
Zr1682     O1683   2.413       .  S
O1683      H1703   0.987       .  S
O1683      H1708   0.990       .  S
O1684      H1704   0.991       .  S
Zr1685     O1691   2.392       .  S
Zr1685     O1690   2.353       .  S
Zr1685     O1695   2.351       .  S
Zr1685     O1693   2.371       .  S
Zr1685     O1686   2.436       .  S
Zr1685     O1687   2.437       .  S
O1686      H1702   0.990       .  S
O1687      H1701   0.990       .  S
O1687      H1711   0.990       .  S
Zr1688     O1691   2.377       .  S
Zr1688     O1693   2.385       .  S
Zr1688     O1694   2.378       .  S
Zr1689     O1690   2.381       .  S
Zr1689     O1692   2.363       .  S
Zr1689     O1695   2.377       .  S
O1690      H1698   0.966       .  S
O1693      H1697   0.965       .  S
O1694      H1699   0.965       .  S
O1712     Zr1724   2.362       .  S
O1712      C1714   1.272       .  A
O1713     Zr1750   2.380       .  S
O1713      C1714   1.280       .  A
O1715     Zr1727   2.363       .  S
O1715      C1717   1.274       .  A
O1716     Zr1751   2.408       .  S
O1716      C1717   1.287       .  A
C1717      C2091   1.430       .  S
O1718     Zr1727   2.403       .  S
O1718      C1720   1.281       .  A
O1719     Zr1750   2.441       .  S
O1719      C1720   1.286       .  A
C1720      C2377   1.470   1_556  S
O1721     Zr1724   2.437       .  S
O1721      C1723   1.285       .  A
O1722     Zr1751   2.447       .  S
O1722      C1723   1.290       .  A
C1723      C2387   1.484       .  S
Zr1724     O1730   2.383       .  S
Zr1724     O1731   2.344       .  S
Zr1724     O1754   2.335       .  S
Zr1724     O1756   2.384       .  S
Zr1724     O1725   2.437       .  S
O1725      H1768   0.990       .  S
O1726      H1767   0.990       .  S
O1726      H1771   0.990       .  S
Zr1727     O1731   2.382       .  S
Zr1727     O1730   2.348       .  S
Zr1727     O1755   2.350       .  S
Zr1727     O1757   2.364       .  S
Zr1727     O1728   2.429       .  S
Zr1727     O1729   2.434       .  S
O1728      H1769   0.990       .  S
O1728      H1772   0.990       .  S
O1729      H1762   0.990       .  S
O1730     Zr1750   2.377       .  S
O1731     Zr1751   2.379       .  S
O1731      H1758   0.966       .  S
O1732     Zr1744   2.344       .  S
O1732      C1734   1.270       .  A
O1733     Zr1751   2.411       .  S
O1733      C1734   1.287       .  A
O1735     Zr1747   2.428       .  S
O1735      C1737   1.288       .  A
O1736     Zr1750   2.374       .  S
O1736      C1737   1.276       .  A
C1737      C1971   1.433   1_556  S
O1738     Zr1747   2.472       .  S
O1738      C1740   1.292       .  A
O1739     Zr1751   2.423       .  S
O1739      C1740   1.288       .  A
C1740      C2354   1.488       .  S
O1741     Zr1744   2.419       .  S
O1741      C1743   1.283       .  A
O1742     Zr1750   2.420       .  S
O1742      C1743   1.283       .  A
C1743      C2367   1.460   1_556  S
Zr1744     O1752   2.376       .  S
Zr1744     O1753   2.327       .  S
Zr1744     O1756   2.338       .  S
Zr1744     O1754   2.372       .  S
Zr1744     O1745   2.428       .  S
O1745      H1765   0.989       .  S
O1745      H1770   0.990       .  S
O1746      H1766   0.991       .  S
Zr1747     O1753   2.377       .  S
Zr1747     O1752   2.361       .  S
Zr1747     O1757   2.346       .  S
Zr1747     O1755   2.378       .  S
Zr1747     O1748   2.434       .  S
Zr1747     O1749   2.430       .  S
O1748      H1764   0.990       .  S
O1749      H1763   0.990       .  S
O1749      H1773   0.990       .  S
Zr1750     O1753   2.377       .  S
Zr1750     O1755   2.384       .  S
Zr1750     O1756   2.380       .  S
Zr1751     O1752   2.388       .  S
Zr1751     O1754   2.361       .  S
Zr1751     O1757   2.371       .  S
O1752      H1760   0.966       .  S
O1755      H1759   0.966       .  S
O1756      H1761   0.965       .  S
O1774     Zr1786   2.336       .  S
O1774      C1776   1.264       .  A
O1775     Zr1812   2.512       .  S
O1775      C1776   1.311       .  A
C1776      C2798   1.457   1_556  S
O1777     Zr1789   2.354       .  S
O1777      C1779   1.271       .  A
O1778     Zr1813   2.441       .  S
O1778      C1779   1.289       .  A
C1779      C1909   1.430       .  S
O1780     Zr1789   2.397       .  S
O1780      C1782   1.279       .  A
O1781     Zr1812   2.515       .  S
O1781      C1782   1.305       .  A
C1782      C2334   1.506       .  S
O1783     Zr1786   2.380       .  S
O1783      C1785   1.274       .  A
O1784     Zr1813   2.498       .  S
O1784      C1785   1.299       .  A
C1785      C2327   1.486       .  S
Zr1786     O1792   2.364       .  S
Zr1786     O1793   2.348       .  S
Zr1786     O1816   2.341       .  S
Zr1786     O1818   2.374       .  S
Zr1786     O1787   2.436       .  S
Zr1786     O2612   2.435       .  S
O1787      H1830   0.991   1_556  S
O1788     Zr2610   2.435   1_545  S
O1788      H1829   0.990       .  S
O1788      H1833   0.990       .  S
Zr1789     O1793   2.373       .  S
Zr1789     O1792   2.336       .  S
Zr1789     O1817   2.344       .  S
Zr1789     O1819   2.367       .  S
Zr1789     O1790   2.431   1_556  S
Zr1789     O1791   2.436       .  S
O1790      H1831   0.990       .  S
O1790      H1834   0.990       .  S
O1791      H1824   0.990       .  S
O1792     Zr1812   2.369       .  S
O1793     Zr1813   2.391       .  S
O1793      H1820   0.965       .  S
O1794     Zr1806   2.375       .  S
O1794      C1796   1.273       .  A
O1795     Zr1813   2.424       .  S
O1795      C1796   1.286       .  A
C1796      C2688   1.426       .  S
O1797     Zr1809   2.362       .  S
O1797      C1799   1.272       .  A
O1798     Zr1812   2.465       .  S
O1798      C1799   1.295       .  A
C1799      C2114   1.447       .  S
O1800     Zr1809   2.419       .  S
O1800      C1802   1.283       .  A
O1801     Zr1813   2.513       .  S
O1801      C1802   1.303       .  A
C1802      C2317   1.512       .  S
O1803     Zr1806   2.395       .  S
O1803      C1805   1.279       .  A
O1804     Zr1812   2.549       .  S
O1804      C1805   1.310       .  A
C1805      C2344   1.532       .  S
Zr1806     O1814   2.371       .  S
Zr1806     O1815   2.342       .  S
Zr1806     O1818   2.361       .  S
Zr1806     O1816   2.366       .  S
Zr1806     O1807   2.438       .  S
Zr1806     O2632   2.435       .  S
O1807      H1827   0.990       .  S
O1807      H1832   0.990       .  S
O1808     Zr2630   2.435   1_545  S
O1808      H1828   0.990       .  S
Zr1809     O1815   2.362       .  S
Zr1809     O1814   2.344       .  S
Zr1809     O1819   2.347       .  S
Zr1809     O1817   2.370       .  S
Zr1809     O1810   2.431       .  S
Zr1809     O1811   2.433       .  S
O1810      H1826   0.991       .  S
O1811      H1825   0.990       .  S
O1811      H1835   0.990       .  S
Zr1812     O1815   2.387       .  S
Zr1812     O1817   2.414       .  S
Zr1812     O1818   2.416       .  S
Zr1813     O1814   2.395       .  S
Zr1813     O1816   2.409       .  S
Zr1813     O1819   2.402       .  S
O1814      H1822   0.965       .  S
O1817      H1821   0.966       .  S
O1818      H1823   0.966       .  S
C1836      C2277   1.599       .  S
C1836      C2284   1.556       .  S
C1836      C2294   1.609       .  S
C1836      C2307   1.598       .  S
C1837      C2234   1.593       .  S
C1837      C2247   1.584       .  S
C1837      C2254   1.597       .  S
C1837      C2264   1.616       .  S
C1838      C2194   1.590       .  S
C1838      C2204   1.589       .  S
C1838      C2214   1.568       .  S
C1838      C2224   1.612       .  S
O1840     Zr1877   2.405       .  S
O1840      C1841   1.287       .  A
O1842      C1844   1.267       .  A
O1843     Zr1878   2.421       .  S
C1844      C2476   1.419       .  S
O1846     Zr1877   2.439       .  S
O1846      C1847   1.288   1_545  A
O1849     Zr1878   2.451       .  S
O1849      C1850   1.290       .  A
Zr1851     O1857   2.385       .  S
Zr1851     O1858   2.340       .  S
Zr1851     O1881   2.342       .  S
Zr1851     O1883   2.384       .  S
Zr1851     O1853   2.435       .  S
O1852      H1895   0.990       .  S
O1853      H1894   0.990       .  S
Zr1854     O1858   2.377       .  S
Zr1854     O1857   2.334       .  S
Zr1854     O1882   2.330       .  S
Zr1854     O1884   2.388       .  S
Zr1854     O2680   2.431   1_545  S
O1855      H1896   0.990       .  S
O1855      H1899   0.990   1_545  S
O1856     Zr2678   2.431       .  S
O1856      H1889   0.990       .  S
O1857     Zr1877   2.366       .  S
O1858     Zr1878   2.372       .  S
O1859     Zr1871   2.359       .  S
O1859      C1861   1.272       .  A
O1860     Zr1878   2.426       .  S
O1860      C1861   1.291       .  A
C1861      C2035   1.433       .  S
O1862     Zr1874   2.438   1_565  S
O1862      C1864   1.290       .  A
O1863     Zr1877   2.375       .  S
O1863      C1864   1.276   1_545  A
C1864      C2620   1.426       .  S
O1865     Zr1874   2.499   1_565  S
O1865      C1867   1.299       .  A
O1866     Zr1878   2.435       .  S
O1866      C1867   1.288   1_545  A
C1867      C3081   1.496       .  S
O1868     Zr1871   2.401       .  S
O1868      C1870   1.279       .  A
O1869     Zr1877   2.462       .  S
O1869      C1870   1.292       .  A
C1870      C2274   1.497       .  S
Zr1871     O1879   2.369       .  S
Zr1871     O1880   2.347       .  S
Zr1871     O1883   2.350       .  S
Zr1871     O1881   2.380       .  S
Zr1871     O1872   2.438       .  S
Zr1871     O1873   2.436       .  S
O1872      H1892   0.990       .  S
O1872      H1897   0.990       .  S
O1873      H1893   0.990       .  S
Zr1874     O1880   2.384       .  S
Zr1874     O1879   2.346       .  S
Zr1874     O1884   2.360       .  S
Zr1874     O1882   2.376       .  S
Zr1874     O1875   2.433   1_545  S
Zr1874     O2700   2.435   1_545  S
O1875      H1891   0.990   1_565  S
O1876     Zr2698   2.435       .  S
O1876      H1890   0.990       .  S
O1876      H1900   0.990       .  S
Zr1877     O1880   2.383       .  S
Zr1877     O1882   2.386       .  S
Zr1877     O1883   2.385       .  S
Zr1878     O1879   2.382       .  S
Zr1878     O1881   2.380       .  S
Zr1878     O1884   2.387       .  S
O1879      H1887   0.965       .  S
O1882      H2710   0.965   1_545  S
O1883      H1888   0.966       .  S
H1886      O2706   0.965       .  S
O1902     Zr1939   2.414   1_556  S
O1902      C1903   1.283       .  A
O1904     Zr1916   2.481       .  S
O1904      C1906   1.297       .  A
O1905     Zr1940   2.423       .  S
O1905      C1906   1.286       .  A
C1906      C2237   1.506       .  S
O1907     Zr1916   2.443       .  S
O1907      C1909   1.292   1_554  A
O1908     Zr1939   2.372   1_556  S
O1908      C1909   1.273       .  A
O1911     Zr1940   2.397       .  S
O1911      C1912   1.284       .  A
Zr1913     O1919   2.328       .  S
Zr1913     O1920   2.383       .  S
Zr1913     O1943   2.377       .  S
Zr1913     O1945   2.340       .  S
Zr1913     O1914   2.430       .  S
O1914      H1957   0.990       .  S
O1915      H1956   0.990       .  S
O1915      H1960   0.990       .  S
Zr1916     O1920   2.356       .  S
Zr1916     O1919   2.372       .  S
Zr1916     O1944   2.377       .  S
Zr1916     O1946   2.351       .  S
Zr1916     O1917   2.437       .  S
Zr1916     O1918   2.429       .  S
O1917      H1958   0.990       .  S
O1917      H1961   0.990       .  S
O1918      H1951   0.990       .  S
O1919     Zr1939   2.385       .  S
O1920     Zr1940   2.399       .  S
O1920      H1947   0.966       .  S
O1922     Zr1940   2.447       .  S
O1922      C1923   1.289       .  A
O1924     Zr1936   2.396       .  S
O1924      C1926   1.279   1_554  A
O1925     Zr1939   2.456   1_556  S
O1925      C1926   1.290       .  A
C1926      C2287   1.479       .  S
O1927     Zr1936   2.353       .  S
O1927      C1929   1.270       .  A
O1928     Zr1940   2.414       .  S
O1928      C1929   1.287       .  A
C1929      C2038   1.429       .  S
O1931     Zr1939   2.383   1_556  S
O1931      C1932   1.282       .  A
Zr1933     O1941   2.348       .  S
Zr1933     O1942   2.387       .  S
Zr1933     O1945   2.380       .  S
Zr1933     O1943   2.334       .  S
Zr1933     O1934   2.435       .  S
O1934      H1954   0.990       .  S
O1935      H1955   0.990       .  S
Zr1936     O1942   2.352       .  S
Zr1936     O1941   2.378       .  S
Zr1936     O1946   2.368       .  S
Zr1936     O1944   2.352       .  S
Zr1936     O1937   2.435       .  S
Zr1936     O1938   2.439       .  S
O1937      H1953   0.990       .  S
O1938      H1952   0.990       .  S
O1938      H1962   0.990       .  S
Zr1939     O1942   2.377       .  S
Zr1939     O1944   2.381       .  S
Zr1939     O1945   2.377       .  S
Zr1940     O1941   2.377       .  S
Zr1940     O1943   2.366       .  S
Zr1940     O1946   2.369       .  S
O1941      H1949   0.966       .  S
O1944      H1948   0.966       .  S
O1963     Zr2799   2.372       .  S
O1963      C2789   1.274       .  A
O1964     Zr2001   2.511       .  S
O1964      C1965   1.301       .  A
C1965      O2787   1.274   1_545  A
C1965      C3261   1.495   1_544  S
O1966     Zr1978   2.410       .  S
O1966      C1968   1.281       .  A
O1967     Zr2002   2.519       .  S
O1967      C1968   1.304       .  A
C1968      C2297   1.519   1_554  S
O1969     Zr1978   2.408       .  S
O1969      C1971   1.274       .  A
O1970     Zr2001   2.405       .  S
O1970      C1971   1.278       .  A
O1972     Zr2799   2.328       .  S
O1972      C2798   1.264       .  A
O1973     Zr2002   2.514       .  S
O1973      C1974   1.310   1_545  A
C1974      O2796   1.264       .  A
C1974      C2600   1.457   1_554  S
Zr1975     O2787   2.372   1_545  S
Zr1975     O2796   2.328   1_545  S
Zr1975     O1981   2.321       .  S
Zr1975     O1982   2.373       .  S
Zr1975     O2005   2.370   1_545  S
Zr1975     O2007   2.346       .  S
Zr1975     O1976   2.433   1_544  S
Zr1975     O2801   2.427   1_545  S
O1976      H2019   0.991   1_565  S
O1977     Zr2799   2.427       .  S
O1977      H2018   0.989       .  S
O1977      H2022   0.990       .  S
Zr1978     O1982   2.360       .  S
Zr1978     O1981   2.351       .  S
Zr1978     O2006   2.370       .  S
Zr1978     O2008   2.360       .  S
Zr1978     O1979   2.432   1_554  S
Zr1978     O1980   2.431       .  S
O1979      H2020   0.990       .  S
O1979      H2023   0.990       .  S
O1980      H2013   0.990       .  S
O1981     Zr2001   2.374       .  S
O1982     Zr2002   2.394       .  S
O1982      H2009   0.964       .  S
O1983     Zr2819   2.392       .  S
O1983      C2809   1.278       .  A
O1984     Zr2002   2.557       .  S
O1984      C1985   1.312   1_545  A
C1985      O2807   1.278       .  A
C1985      C3068   1.527       .  S
O1986     Zr1998   2.411       .  S
O1986      C1988   1.282       .  A
O1987     Zr2001   2.492       .  S
O1987      C1988   1.300       .  A
C1988      C2197   1.501       .  S
O1989     Zr1998   2.382       .  S
O1989      C1991   1.276       .  A
O1990     Zr2002   2.464       .  S
O1990      C1991   1.295       .  A
C1991      C2055   1.449       .  S
O1992     Zr2819   2.377       .  S
O1992      C2818   1.275       .  A
O1993     Zr2001   2.406       .  S
O1993      C1994   1.283       .  A
C1994      O2816   1.275   1_545  A
C1994      C2479   1.423   1_545  S
Zr1995     O2807   2.392   1_545  S
Zr1995     O2816   2.377   1_545  S
Zr1995     O2003   2.348       .  S
Zr1995     O2004   2.360       .  S
Zr1995     O2007   2.354       .  S
Zr1995     O2005   2.356   1_545  S
Zr1995     O1996   2.440   1_545  S
Zr1995     O2821   2.420   1_545  S
O1996      H2016   0.990       .  S
O1996      H2845   0.990       .  S
O1997     Zr2819   2.420       .  S
O1997      H2017   0.990       .  S
Zr1998     O2004   2.352       .  S
Zr1998     O2003   2.357       .  S
Zr1998     O2008   2.369       .  S
Zr1998     O2006   2.350       .  S
Zr1998     O1999   2.433       .  S
Zr1998     O2000   2.435       .  S
O1999      H2015   0.991       .  S
O2000      H2014   0.990       .  S
O2000      H2024   0.990       .  S
Zr2001     O2004   2.383       .  S
Zr2001     O2006   2.421       .  S
Zr2001     O2007   2.401       .  S
Zr2002     O2003   2.403       .  S
Zr2002     O2005   2.406   1_545  S
Zr2002     O2008   2.421       .  S
O2003      H2011   0.963       .  S
O2006      H2010   0.966       .  S
O2007      H2836   0.965   1_545  S
H2012      O2831   0.965       .  S
H2021      O2820   0.990       .  S
C2025      C2184   1.604       .  S
C2025      C2337   1.599       .  S
C2025      C2374   1.571       .  S
C2025      C2397   1.582       .  S
C2026      C2177   1.629       .  S
C2026      C2314   1.578       .  S
C2026      C2384   1.600       .  S
C2026      C2417   1.581       .  S
O2027     Zr2039   2.430       .  S
O2027      C2029   1.285       .  A
O2028     Zr2065   2.523       .  S
O2028      C2029   1.304       .  A
C2029      C2174   1.534       .  S
O2030     Zr2042   2.451       .  S
O2030      C2032   1.288       .  A
O2031     Zr2066   2.470       .  S
O2031      C2032   1.294       .  A
C2032      C2154   1.498       .  S
O2033     Zr2042   2.359       .  S
O2033      C2035   1.272       .  A
O2034     Zr2065   2.425       .  S
O2034      C2035   1.291       .  A
O2036     Zr2039   2.357       .  S
O2036      C2038   1.272       .  A
O2037     Zr2066   2.419       .  S
O2037      C2038   1.289       .  A
Zr2039     O2045   2.338       .  S
Zr2039     O2046   2.387       .  S
Zr2039     O2069   2.384       .  S
Zr2039     O2071   2.348       .  S
Zr2039     O2040   2.435       .  S
Zr2039     O2041   2.437       .  S
O2040      H2083   0.990       .  S
O2041      H2082   0.990       .  S
O2041      H2086   0.990       .  S
Zr2042     O2046   2.345       .  S
Zr2042     O2045   2.385       .  S
Zr2042     O2070   2.392       .  S
Zr2042     O2072   2.341       .  S
Zr2042     O2043   2.438       .  S
Zr2042     O2044   2.437       .  S
O2043      H2084   0.990       .  S
O2043      H2087   0.990       .  S
O2044      H2077   0.990       .  S
O2045     Zr2065   2.377       .  S
O2046     Zr2066   2.383       .  S
O2046      H2073   0.966       .  S
O2047     Zr2059   2.442       .  S
O2047      C2049   1.289       .  A
O2048     Zr2066   2.483       .  S
O2048      C2049   1.296       .  A
C2049      C2187   1.510       .  S
O2050     Zr2062   2.500       .  S
O2050      C2052   1.300       .  A
O2051     Zr2065   2.473       .  S
O2051      C2052   1.297       .  A
C2052      C2167   1.522       .  S
O2053     Zr2062   2.457       .  S
O2053      C2055   1.294       .  A
O2054     Zr2066   2.400       .  S
O2054      C2055   1.280       .  A
O2056     Zr2059   2.394       .  S
O2056      C2058   1.279       .  A
O2057     Zr2065   2.443       .  S
O2057      C2058   1.293       .  A
C2058      C2111   1.456       .  S
Zr2059     O2067   2.358       .  S
Zr2059     O2068   2.376       .  S
Zr2059     O2071   2.388       .  S
Zr2059     O2069   2.356       .  S
Zr2059     O2060   2.437       .  S
Zr2059     O2061   2.435       .  S
O2060      H2080   0.990       .  S
O2060      H2085   0.990       .  S
O2061      H2081   0.990       .  S
Zr2062     O2068   2.361       .  S
Zr2062     O2067   2.387       .  S
Zr2062     O2072   2.379       .  S
Zr2062     O2070   2.363       .  S
Zr2062     O2063   2.433       .  S
Zr2062     O2064   2.436       .  S
O2063      H2079   0.990       .  S
O2064      H2078   0.990       .  S
O2064      H2088   0.990       .  S
Zr2065     O2068   2.388       .  S
Zr2065     O2070   2.410       .  S
Zr2065     O2071   2.385       .  S
Zr2066     O2067   2.397       .  S
Zr2066     O2069   2.388       .  S
Zr2066     O2072   2.390       .  S
O2067      H2075   0.966       .  S
O2070      H2074   0.966       .  S
O2071      H2076   0.966       .  S
O2089     Zr2101   2.369       .  S
O2089      C2091   1.274       .  A
O2090     Zr2127   2.406       .  S
O2090      C2091   1.286       .  A
O2092     Zr2104   2.364       .  S
O2092      C2094   1.274       .  A
O2093     Zr2128   2.442       .  S
O2093      C2094   1.294       .  A
O2095     Zr2104   2.455       .  S
O2095      C2097   1.289       .  A
O2096     Zr2127   2.463       .  S
O2096      C2097   1.294       .  A
C2097      C2457   1.502       .  S
O2098     Zr2101   2.438       .  S
O2098      C2100   1.287       .  A
O2099     Zr2128   2.515       .  S
O2099      C2100   1.301       .  A
C2100      C2227   1.533       .  S
Zr2101     O2107   2.388       .  S
Zr2101     O2108   2.342       .  S
Zr2101     O2131   2.349       .  S
Zr2101     O2133   2.382       .  S
Zr2101     O2102   2.435       .  S
Zr2101     O2103   2.437       .  S
O2102      H2145   0.990       .  S
O2103      H2144   0.990       .  S
O2103      H2148   0.990       .  S
Zr2104     O2108   2.385       .  S
Zr2104     O2107   2.344       .  S
Zr2104     O2132   2.332       .  S
Zr2104     O2134   2.396       .  S
Zr2104     O2105   2.436       .  S
Zr2104     O2106   2.429       .  S
O2105      H2146   0.990       .  S
O2105      H2149   0.990       .  S
O2106      H2139   0.990       .  S
O2107     Zr2127   2.378       .  S
O2108     Zr2128   2.389       .  S
O2108      H2135   0.965       .  S
O2109     Zr2121   2.398       .  S
O2109      C2111   1.280       .  A
O2110     Zr2128   2.444       .  S
O2110      C2111   1.294       .  A
O2112     Zr2124   2.450       .  S
O2112      C2114   1.294       .  A
O2113     Zr2127   2.402       .  S
O2113      C2114   1.280       .  A
O2115     Zr2124   2.490       .  S
O2115      C2117   1.299       .  A
O2116     Zr2128   2.486       .  S
O2116      C2117   1.298       .  A
C2117      C2267   1.530       .  S
O2118     Zr2121   2.451       .  S
O2118      C2120   1.289       .  A
O2119     Zr2127   2.478       .  S
O2119      C2120   1.296       .  A
C2120      C2304   1.500       .  S
Zr2121     O2129   2.381       .  S
Zr2121     O2130   2.360       .  S
Zr2121     O2133   2.354       .  S
Zr2121     O2131   2.394       .  S
Zr2121     O2122   2.437       .  S
Zr2121     O2123   2.431       .  S
O2122      H2142   0.990       .  S
O2122      H2147   0.990       .  S
O2123      H2143   0.989       .  S
Zr2124     O2130   2.387       .  S
Zr2124     O2129   2.358       .  S
Zr2124     O2134   2.364       .  S
Zr2124     O2132   2.373       .  S
Zr2124     O2125   2.433       .  S
Zr2124     O2126   2.436       .  S
O2125      H2141   0.990       .  S
O2126      H2140   0.990       .  S
O2126      H2150   0.990       .  S
Zr2127     O2130   2.391       .  S
Zr2127     O2132   2.385       .  S
Zr2127     O2133   2.390       .  S
Zr2128     O2129   2.398       .  S
Zr2128     O2131   2.395       .  S
Zr2128     O2134   2.406       .  S
O2129      H2137   0.965       .  S
O2132      H2136   0.965       .  S
O2133      H2138   0.966       .  S
C2151      C2164   1.604       .  S
C2151      C2347   1.600       .  S
C2151      C2357   1.585       .  S
C2151      C2427   1.565       .  S
C2152      C2157   1.577       .  S
C2152      C2324   1.574       .  S
C2152      C2364   1.555       .  S
C2152      C2404   1.567       .  S
C2153      C2154   1.404       .  A
C2153      C2158   1.413       .  A
C2153      H2160   1.083       .  S
C2154      C2155   1.405       .  A
C2155      C2156   1.404       .  A
C2155      F2162   1.358       .  S
C2156      C2157   1.418       .  A
C2156      H2161   1.082       .  S
C2157      C2158   1.427       .  A
C2158      F2159   1.354       .  S
C2163      C2164   1.422       .  A
C2163      C2168   1.423       .  A
C2163      H2170   1.078       .  S
C2164      C2165   1.433       .  A
C2165      C2166   1.413       .  A
C2165      F2172   1.358       .  S
C2166      C2167   1.403       .  A
C2166      H2171   1.083       .  S
C2167      C2168   1.412       .  A
C2168      F2169   1.355       .  S
C2173      C2174   1.410       .  A
C2173      C2178   1.430       .  A
C2173      H2180   1.083       .  S
C2174      C2175   1.414       .  A
C2175      C2176   1.403       .  A
C2175      F2182   1.358       .  S
C2176      C2177   1.424       .  A
C2176      H2181   1.077       .  S
C2177      C2178   1.439       .  A
C2178      F2179   1.351       .  S
C2183      C2184   1.430       .  A
C2183      C2188   1.420       .  A
C2183      H2190   1.082       .  S
C2184      C2185   1.429       .  A
C2185      C2186   1.399       .  A
C2185      F2192   1.346       .  S
C2186      C2187   1.400       .  A
C2186      H2191   1.084       .  S
C2187      C2188   1.407       .  A
C2188      F2189   1.357       .  S
C2193      C2194   1.430       .  A
C2193      C2198   1.406       .  A
C2193      H2200   1.068       .  S
C2194      C2195   1.421       .  A
C2195      C2196   1.405       .  A
C2195      F2202   1.356       .  S
C2196      C2197   1.410       .  A
C2196      H2201   1.083       .  S
C2197      C2198   1.396       .  A
C2198      F2199   1.358       .  S
C2203      C2204   1.430       .  A
C2203      H2210   1.082       .  S
C2204      C2205   1.419       .  A
C2205      C2206   1.412       .  A
C2205      F2212   1.345       .  S
C2206      C2207   1.400       .  A
C2206      H2211   1.082       .  S
C2208      F2209   1.358       .  S
C2213      C2214   1.416       .  A
C2213      C2218   1.411       .  A
C2213      H2220   1.081       .  S
C2214      C2215   1.423       .  A
C2215      C2216   1.393       .  A
C2215      F2222   1.359       .  S
C2216      C2217   1.397       .  A
C2216      H2221   1.084       .  S
C2217      C2218   1.407       .  A
C2223      C2224   1.422       .  A
C2223      C2228   1.398       .  A
C2223      H2230   1.077       .  S
C2224      C2225   1.431       .  A
C2225      C2226   1.432       .  A
C2225      F2232   1.358       .  S
C2226      C2227   1.415       .  A
C2226      H2231   1.082       .  S
C2227      C2228   1.414       .  A
C2228      F2229   1.358       .  S
C2233      C2234   1.425       .  A
C2233      C2238   1.394       .  A
C2233      H2240   1.077       .  S
C2234      C2235   1.418       .  A
C2235      C2236   1.417       .  A
C2235      F2242   1.358       .  S
C2236      C2237   1.415       .  A
C2236      H2241   1.083       .  S
C2237      C2238   1.402       .  A
C2238      F2239   1.358       .  S
C2243      C2244   1.419       .  A
C2243      C2248   1.398       .  A
C2243      H2250   1.080       .  S
C2244      C2809   1.527       .  S
C2244      C2245   1.409       .  A
C2245      C2246   1.426       .  A
C2245      F2252   1.356       .  S
C2246      C2247   1.433       .  A
C2246      H2251   1.082       .  S
C2247      C2248   1.412       .  A
C2248      F2249   1.354       .  S
C2253      C2254   1.424       .  A
C2253      C2258   1.409       .  A
C2253      H2260   1.072       .  S
C2254      C2255   1.425       .  A
C2255      C2256   1.412       .  A
C2255      F2262   1.358       .  S
C2256      C2257   1.403       .  A
C2256      H3085   1.083       .  S
C2257      C2691   1.496       .  S
C2257      C2258   1.401       .  A
C2258      F2259   1.358       .  S
H2261      C3080   1.083   1_545  S
C2263      C2264   1.426       .  A
C2263      C2268   1.407       .  A
C2263      H2270   1.065       .  S
C2264      C2265   1.433       .  A
C2265      C2266   1.429       .  A
C2265      F2272   1.356       .  S
C2266      C2267   1.414       .  A
C2266      H2271   1.083       .  S
C2267      C2268   1.405       .  A
C2268      F2269   1.358       .  S
C2273      C2274   1.398       .  A
C2273      C2278   1.410       .  A
C2273      H2280   1.083       .  S
C2274      C2275   1.407       .  A
C2275      C2276   1.389       .  A
C2275      F2282   1.359       .  S
C2276      C2277   1.421       .  A
C2276      H2281   1.074       .  S
C2277      C2278   1.436       .  A
C2278      F2279   1.346       .  S
C2283      C2284   1.424       .  A
C2283      C2288   1.402       .  A
C2283      H2290   1.081       .  S
C2284      C2285   1.413       .  A
C2285      C2286   1.390       .  A
C2285      F2292   1.357       .  S
C2286      C2287   1.406       .  A
C2286      H2291   1.083       .  S
C2287      C2288   1.399       .  A
C2288      F2289   1.357       .  S
C2293      C2294   1.434       .  A
C2293      C2298   1.421       .  A
C2293      H2300   1.065       .  S
C2294      C2295   1.427       .  A
C2295      C2296   1.394       .  A
C2295      F2302   1.353       .  S
C2296      C2297   1.409       .  A
C2296      H2301   1.079       .  S
C2297      C2298   1.401       .  A
C2298      F2299   1.357   1_556  S
C2303      C2304   1.402       .  A
C2303      C2308   1.413       .  A
C2303      H2310   1.083       .  S
C2304      C2305   1.404       .  A
C2305      C2306   1.407       .  A
C2305      F2312   1.357       .  S
C2306      C2307   1.426       .  A
C2306      H2311   1.083       .  S
C2307      C2308   1.431       .  A
C2308      F2309   1.354       .  S
C2313      C2314   1.410       .  A
C2313      C2318   1.402       .  A
C2313      H2320   1.081       .  S
C2314      C2315   1.432       .  A
C2315      C2316   1.416       .  A
C2315      F2322   1.355       .  S
C2316      C2317   1.403       .  A
C2316      H2321   1.083       .  S
C2317      C2318   1.417       .  A
C2318      F2319   1.357       .  S
C2323      C2324   1.416       .  A
C2323      C2328   1.396   1_554  A
C2323      H2330   1.083       .  S
C2324      C3149   1.429   1_545  A
C2325      C3148   1.429       .  A
C2325      C2326   1.412       .  A
C2325      F2332   1.351       .  S
C2326      C2327   1.402   1_554  A
C2326      H2331   1.084   1_554  S
C2327      C3152   1.407       .  A
C2328      C3151   1.407   1_545  A
C2328      F2329   1.359       .  S
C2333      C2334   1.398   1_554  A
C2333      C2338   1.417       .  A
C2333      H2340   1.081   1_554  S
C2334      C2335   1.410       .  A
C2335      C2336   1.401   1_556  A
C2335      F2342   1.359       .  S
C2336      C2337   1.415       .  A
C2336      H2341   1.071       .  S
C2337      C2338   1.439       .  A
C2338      F2339   1.353       .  S
C2343      C2344   1.416       .  A
C2343      C3172   1.399       .  A
C2343      H2350   1.080       .  S
C2344      C2345   1.408       .  A
C2345      C3170   1.429       .  A
C2345      F2352   1.356       .  S
C2346      C3169   1.429   1_545  A
C2346      C2347   1.436       .  A
C2346      H2351   1.082       .  S
C2347      C2348   1.417       .  A
C2348      C3167   1.399   1_545  A
C2348      F2349   1.351       .  S
C2353      C2354   1.391       .  A
C2353      C2358   1.394       .  A
C2353      H2360   1.084       .  S
C2354      C2355   1.406       .  A
C2355      C2356   1.412       .  A
C2355      F2362   1.357       .  S
C2356      C2357   1.421       .  A
C2356      H2361   1.083       .  S
C2357      C2358   1.437       .  A
C2358      F2359   1.353       .  S
C2363      C2368   1.383   1_455  A
C2363      H2370   1.083       .  S
C2364      C2365   1.421       .  A
C2365      C2366   1.404       .  A
C2365      F2372   1.354       .  S
C2366      H2371   1.083       .  S
C2367      C2368   1.394       .  A
C2368      F2369   1.359   1_554  S
C2373      C2374   1.416       .  A
C2373      C2378   1.379       .  A
C2373      H2380   1.069       .  S
C2374      C2375   1.430       .  A
C2375      C2376   1.410       .  A
C2375      F2382   1.355       .  S
C2376      C2377   1.400       .  A
C2376      H2381   1.081       .  S
C2377      C2378   1.393       .  A
C2378      F2379   1.359   1_554  S
C2383      C2384   1.418       .  A
C2383      C2388   1.406       .  A
C2383      H2390   1.062       .  S
C2385      C2386   1.399       .  A
C2385      F2392   1.355       .  S
C2386      C2387   1.389       .  A
C2386      H2391   1.084       .  S
C2388      F2389   1.358       .  S
C2393      C2394   1.400       .  A
C2393      C2398   1.409       .  A
C2393      H2400   1.081       .  S
C2394      C2395   1.392       .  A
C2395      C2396   1.394       .  A
C2395      F2402   1.358       .  S
C2396      C2397   1.426       .  A
C2396      H2401   1.075       .  S
C2397      C2398   1.421       .  A
C2398      F2399   1.357       .  S
C2403      C2404   1.416       .  A
C2403      C3232   1.408   1_545  A
C2403      H2410   1.083   1_545  S
C2405      C2406   1.389   1_455  A
C2405      F2412   1.357   1_455  S
C2406      C3231   1.390   1_645  A
C2406      H2411   1.085       .  S
C2407      C3230   1.390   1_455  A
C2408      C3227   1.408       .  A
C2408      F2409   1.357       .  S
C2413      C2418   1.417       .  A
C2413      H2420   1.081       .  S
C2414      C2415   1.405       .  A
C2415      C2416   1.397   1_655  A
C2415      F2422   1.358       .  S
C2416      H2421   1.084       .  S
C2417      C2418   1.426       .  A
C2418      F2419   1.354       .  S
C2423      C3248   1.398       .  A
C2423      C2428   1.398       .  A
C2423      H2430   1.083       .  S
C2424      C3247   1.398       .  A
C2424      C2425   1.409       .  A
C2425      C2426   1.411       .  A
C2425      F2432   1.355       .  S
C2426      C3251   1.414       .  A
C2426      H2431   1.080       .  S
C2427      C3250   1.414   1_545  A
C2427      C2428   1.427       .  A
C2428      F2429   1.358       .  S
C2433      C2434   1.405       .  A
C2433      C3262   1.395       .  A
C2433      H2440   1.073       .  S
C2434      C2435   1.439       .  A
C2435      C2436   1.412       .  A
C2435      F2442   1.357       .  S
C2436      C2437   1.396       .  A
C2436      H2441   1.083   1_556  S
C2437      C2789   1.495   1_556  S
C2437      C3262   1.413       .  A
C2438      C3257   1.395       .  A
C2438      C3261   1.413       .  A
C2438      F2439   1.357   1_565  S
C2443      C2444   1.419       .  A
C2443      C3272   1.400       .  A
C2443      H2450   1.077       .  S
C2444      C2445   1.419       .  A
C2445      C2446   1.393       .  A
C2445      F2452   1.358       .  S
C2446      C3271   1.403       .  A
C2446      H2451   1.083       .  S
C2447      C3270   1.403       .  A
C2447      C2448   1.400       .  A
C2448      C3267   1.400       .  A
C2448      F2449   1.356   1_565  S
C2453      C2454   1.426       .  A
C2453      C2458   1.408       .  A
C2453      H2460   1.076       .  S
C2454      C2455   1.429       .  A
C2455      C2456   1.411       .  A
C2455      F2462   1.358       .  S
C2456      C2457   1.404       .  A
C2456      H2461   1.083       .  S
C2457      C2458   1.399       .  A
C2458      F2459   1.354       .  S
C2463      C2464   1.420       .  A
C2463      H2470   1.077       .  S
C2464      C2465   1.420       .  A
C2465      C2466   1.396       .  A
C2465      F2472   1.359       .  S
C2466      C2467   1.401       .  A
C2466      H2471   1.084       .  S
C2468      F2469   1.358       .  S
C2473      C3258   1.583       .  S
C2473      C3268   1.562       .  S
C2473      C3278   1.596       .  S
C2473      C3288   1.562       .  S
O2474     Zr2486   2.330       .  S
O2474      C2476   1.267       .  A
O2475     Zr2512   2.421       .  S
O2475      C2476   1.291       .  A
O2477     Zr2489   2.414       .  S
O2477      C2479   1.285       .  A
O2478     Zr2513   2.385       .  S
O2478      C2479   1.277       .  A
O2480     Zr2489   2.465       .  S
O2480      C2482   1.293       .  A
O2481     Zr2512   2.441       .  S
O2481      C2482   1.290       .  A
C2482      C3248   1.492   1_565  S
O2483     Zr2486   2.430       .  S
O2483      C2485   1.283       .  A
O2484     Zr2513   2.431       .  S
O2484      C2485   1.287       .  A
C2485      C3231   1.470   1_655  S
Zr2486     O2492   2.393       .  S
Zr2486     O2493   2.332       .  S
Zr2486     O2516   2.325       .  S
Zr2486     O2518   2.380       .  S
O2487      H2530   0.989       .  S
O2488      H2529   0.990       .  S
O2488      H2533   0.990       .  S
Zr2489     O2493   2.377       .  S
Zr2489     O2492   2.356       .  S
Zr2489     O2517   2.350       .  S
Zr2489     O2519   2.381       .  S
Zr2489     O2491   2.434       .  S
O2490      H2531   0.990       .  S
O2490      H2534   0.990       .  S
O2491      H2524   0.990       .  S
O2492     Zr2512   2.395       .  S
O2493     Zr2513   2.378       .  S
O2493      H2520   0.966       .  S
O2494     Zr2506   2.358       .  S
O2494      C2496   1.271       .  A
O2495     Zr2513   2.386       .  S
O2495      C2496   1.284       .  A
O2497     Zr2509   2.369       .  S
O2497      C2499   1.274       .  A
O2498     Zr2512   2.436       .  S
O2498      C2499   1.293       .  A
C2499      C2918   1.441       .  S
O2500     Zr2509   2.429       .  S
O2500      C2502   1.283       .  A
O2501     Zr2513   2.445       .  S
O2501      C2502   1.289       .  A
C2502      C3218   1.473       .  S
O2503     Zr2506   2.426       .  S
O2503      C2505   1.283       .  A
O2504     Zr2512   2.481       .  S
O2504      C2505   1.296       .  A
C2505      C3238   1.497       .  S
Zr2506     O2514   2.389       .  S
Zr2506     O2515   2.341       .  S
Zr2506     O2518   2.335       .  S
Zr2506     O2516   2.376       .  S
Zr2506     O2507   2.413       .  S
O2507      H2527   0.987       .  S
O2507      H2532   0.990       .  S
O2508      H2528   0.991       .  S
Zr2509     O2515   2.392       .  S
Zr2509     O2514   2.353       .  S
Zr2509     O2519   2.351       .  S
Zr2509     O2517   2.371       .  S
Zr2509     O2510   2.436       .  S
Zr2509     O2511   2.437       .  S
O2510      H2526   0.990       .  S
O2511      H2525   0.990       .  S
O2511      H2535   0.990       .  S
Zr2512     O2515   2.377       .  S
Zr2512     O2517   2.385       .  S
Zr2512     O2518   2.378       .  S
Zr2513     O2514   2.381       .  S
Zr2513     O2516   2.363       .  S
Zr2513     O2519   2.377       .  S
O2514      H2522   0.966       .  S
O2517      H2521   0.965       .  S
O2518      H2523   0.965       .  S
O2536     Zr2548   2.362       .  S
O2536      C2538   1.272       .  A
O2537     Zr2574   2.380       .  S
O2537      C2538   1.280       .  A
O2539     Zr2551   2.363       .  S
O2539      C2541   1.274       .  A
O2540     Zr2575   2.408       .  S
O2540      C2541   1.287       .  A
C2541      C2915   1.430       .  S
O2542     Zr2551   2.403       .  S
O2542      C2544   1.281       .  A
O2543     Zr2574   2.441       .  S
O2543      C2544   1.286       .  A
C2544      C3201   1.470   1_556  S
O2545     Zr2548   2.437       .  S
O2545      C2547   1.285       .  A
O2546     Zr2575   2.447       .  S
O2546      C2547   1.290       .  A
C2547      C3211   1.484       .  S
Zr2548     O2554   2.383       .  S
Zr2548     O2555   2.344       .  S
Zr2548     O2578   2.335       .  S
Zr2548     O2580   2.384       .  S
Zr2548     O2549   2.437       .  S
O2549      H2592   0.990       .  S
O2550      H2591   0.990       .  S
O2550      H2595   0.990       .  S
Zr2551     O2555   2.382       .  S
Zr2551     O2554   2.348       .  S
Zr2551     O2579   2.350       .  S
Zr2551     O2581   2.364       .  S
Zr2551     O2552   2.429       .  S
Zr2551     O2553   2.434       .  S
O2552      H2593   0.990       .  S
O2552      H2596   0.990       .  S
O2553      H2586   0.990       .  S
O2554     Zr2574   2.377       .  S
O2555     Zr2575   2.379       .  S
O2555      H2582   0.966       .  S
O2556     Zr2568   2.344       .  S
O2556      C2558   1.270       .  A
O2557     Zr2575   2.411       .  S
O2557      C2558   1.287       .  A
O2559     Zr2571   2.428       .  S
O2559      C2561   1.288       .  A
O2560     Zr2574   2.374       .  S
O2560      C2561   1.276       .  A
C2561      C2795   1.433   1_556  S
O2562     Zr2571   2.472       .  S
O2562      C2564   1.292       .  A
O2563     Zr2575   2.423       .  S
O2563      C2564   1.288       .  A
C2564      C3178   1.488       .  S
O2565     Zr2568   2.419       .  S
O2565      C2567   1.283       .  A
O2566     Zr2574   2.420       .  S
O2566      C2567   1.283       .  A
C2567      C3191   1.460   1_556  S
Zr2568     O2576   2.376       .  S
Zr2568     O2577   2.327       .  S
Zr2568     O2580   2.338       .  S
Zr2568     O2578   2.372       .  S
Zr2568     O2569   2.428       .  S
O2569      H2589   0.989       .  S
O2569      H2594   0.990       .  S
O2570      H2590   0.991       .  S
Zr2571     O2577   2.377       .  S
Zr2571     O2576   2.361       .  S
Zr2571     O2581   2.346       .  S
Zr2571     O2579   2.378       .  S
Zr2571     O2572   2.434       .  S
Zr2571     O2573   2.430       .  S
O2572      H2588   0.990       .  S
O2573      H2587   0.990       .  S
O2573      H2597   0.990       .  S
Zr2574     O2577   2.377       .  S
Zr2574     O2579   2.384       .  S
Zr2574     O2580   2.380       .  S
Zr2575     O2576   2.388       .  S
Zr2575     O2578   2.361       .  S
Zr2575     O2581   2.371       .  S
O2576      H2584   0.966       .  S
O2579      H2583   0.966       .  S
O2580      H2585   0.965       .  S
O2598     Zr2610   2.336       .  S
O2598      C2600   1.264       .  A
O2599     Zr2636   2.512       .  S
O2599      C2600   1.311       .  A
O2601     Zr2613   2.354       .  S
O2601      C2603   1.271       .  A
O2602     Zr2637   2.441       .  S
O2602      C2603   1.289       .  A
C2603      C2733   1.430       .  S
O2604     Zr2613   2.397       .  S
O2604      C2606   1.279       .  A
O2605     Zr2636   2.515       .  S
O2605      C2606   1.305       .  A
C2606      C3158   1.506       .  S
O2607     Zr2610   2.380       .  S
O2607      C2609   1.274       .  A
O2608     Zr2637   2.498       .  S
O2608      C2609   1.299       .  A
C2609      C3151   1.486       .  S
Zr2610     O2616   2.364       .  S
Zr2610     O2617   2.348       .  S
Zr2610     O2640   2.341       .  S
Zr2610     O2642   2.374       .  S
Zr2610     O2611   2.436       .  S
O2611      H2654   0.991   1_556  S
O2612      H2653   0.990       .  S
O2612      H2657   0.990       .  S
Zr2613     O2617   2.373       .  S
Zr2613     O2616   2.336       .  S
Zr2613     O2641   2.344       .  S
Zr2613     O2643   2.367       .  S
Zr2613     O2614   2.431   1_556  S
Zr2613     O2615   2.436       .  S
O2614      H2655   0.990       .  S
O2614      H2658   0.990       .  S
O2615      H2648   0.990       .  S
O2616     Zr2636   2.369       .  S
O2617     Zr2637   2.391       .  S
O2617      H2644   0.965       .  S
O2618     Zr2630   2.375       .  S
O2618      C2620   1.273       .  A
O2619     Zr2637   2.424       .  S
O2619      C2620   1.286       .  A
O2621     Zr2633   2.362       .  S
O2621      C2623   1.272       .  A
O2622     Zr2636   2.465       .  S
O2622      C2623   1.295       .  A
C2623      C2938   1.447       .  S
O2624     Zr2633   2.419       .  S
O2624      C2626   1.283       .  A
O2625     Zr2637   2.513       .  S
O2625      C2626   1.303       .  A
C2626      C3141   1.512       .  S
O2627     Zr2630   2.395       .  S
O2627      C2629   1.279       .  A
O2628     Zr2636   2.549       .  S
O2628      C2629   1.310       .  A
C2629      C3168   1.532       .  S
Zr2630     O2638   2.371       .  S
Zr2630     O2639   2.342       .  S
Zr2630     O2642   2.361       .  S
Zr2630     O2640   2.366       .  S
Zr2630     O2631   2.438       .  S
O2631      H2651   0.990       .  S
O2631      H2656   0.990   1_565  S
O2632      H2652   0.990       .  S
Zr2633     O2639   2.362       .  S
Zr2633     O2638   2.344       .  S
Zr2633     O2643   2.347       .  S
Zr2633     O2641   2.370       .  S
Zr2633     O2634   2.431       .  S
Zr2633     O2635   2.433       .  S
O2634      H2650   0.991       .  S
O2635      H2649   0.990       .  S
O2635      H2659   0.990       .  S
Zr2636     O2639   2.387       .  S
Zr2636     O2641   2.414       .  S
Zr2636     O2642   2.416       .  S
Zr2637     O2638   2.395       .  S
Zr2637     O2640   2.409       .  S
Zr2637     O2643   2.402       .  S
O2638      H2646   0.965       .  S
O2641      H2645   0.966       .  S
O2642      H2647   0.966   1_565  S
C2660      C3101   1.599       .  S
C2660      C3108   1.556       .  S
C2660      C3118   1.609       .  S
C2660      C3131   1.598       .  S
C2661      C3058   1.593       .  S
C2661      C3071   1.584       .  S
C2661      C3078   1.597       .  S
C2661      C3088   1.616       .  S
C2662      C3018   1.590       .  S
C2662      C3028   1.589       .  S
C2662      C3038   1.568       .  S
C2662      C3048   1.612       .  S
O2664     Zr2701   2.405       .  S
O2664      C2665   1.287       .  A
O2666      C2668   1.267       .  A
O2667     Zr2702   2.421       .  S
O2670     Zr2701   2.439       .  S
O2670      C2671   1.288       .  A
O2673     Zr2702   2.451       .  S
O2673      C2674   1.290       .  A
Zr2675     O2681   2.385       .  S
Zr2675     O2682   2.340       .  S
Zr2675     O2705   2.342       .  S
Zr2675     O2707   2.384       .  S
Zr2675     O2677   2.435       .  S
O2676      H2719   0.990       .  S
O2677      H2718   0.990       .  S
Zr2678     O2682   2.377       .  S
Zr2678     O2681   2.334       .  S
Zr2678     O2706   2.330       .  S
Zr2678     O2708   2.388       .  S
O2679      H2720   0.990       .  S
O2679      H2723   0.990       .  S
O2680      H2713   0.990       .  S
O2681     Zr2701   2.366       .  S
O2682     Zr2702   2.372       .  S
O2683     Zr2695   2.359       .  S
O2683      C2685   1.272       .  A
O2684     Zr2702   2.426       .  S
O2684      C2685   1.291       .  A
C2685      C2859   1.433       .  S
O2686     Zr2698   2.438       .  S
O2686      C2688   1.290       .  A
O2687     Zr2701   2.375       .  S
O2687      C2688   1.276       .  A
O2689     Zr2698   2.499       .  S
O2689      C2691   1.299       .  A
O2690     Zr2702   2.435       .  S
O2690      C2691   1.288       .  A
O2692     Zr2695   2.401       .  S
O2692      C2694   1.279       .  A
O2693     Zr2701   2.462       .  S
O2693      C2694   1.292       .  A
C2694      C3098   1.497       .  S
Zr2695     O2703   2.369       .  S
Zr2695     O2704   2.347       .  S
Zr2695     O2707   2.350       .  S
Zr2695     O2705   2.380       .  S
Zr2695     O2696   2.438       .  S
Zr2695     O2697   2.436       .  S
O2696      H2716   0.990       .  S
O2696      H2721   0.990       .  S
O2697      H2717   0.990       .  S
Zr2698     O2704   2.384       .  S
Zr2698     O2703   2.346       .  S
Zr2698     O2708   2.360       .  S
Zr2698     O2706   2.376       .  S
Zr2698     O2699   2.433       .  S
O2699      H2715   0.990       .  S
O2700      H2714   0.990       .  S
O2700      H2724   0.990       .  S
Zr2701     O2704   2.383       .  S
Zr2701     O2706   2.386       .  S
Zr2701     O2707   2.385       .  S
Zr2702     O2703   2.382       .  S
Zr2702     O2705   2.380       .  S
Zr2702     O2708   2.387       .  S
O2703      H2711   0.965       .  S
O2707      H2712   0.966       .  S
O2726     Zr2763   2.414   1_556  S
O2726      C2727   1.283       .  A
O2728     Zr2740   2.481       .  S
O2728      C2730   1.297       .  A
O2729     Zr2764   2.423       .  S
O2729      C2730   1.286       .  A
C2730      C3061   1.506       .  S
O2731     Zr2740   2.443       .  S
O2731      C2733   1.292   1_554  A
O2732     Zr2763   2.372   1_556  S
O2732      C2733   1.273       .  A
O2735     Zr2764   2.397       .  S
O2735      C2736   1.284       .  A
Zr2737     O2743   2.328       .  S
Zr2737     O2744   2.383       .  S
Zr2737     O2767   2.377       .  S
Zr2737     O2769   2.340       .  S
Zr2737     O2738   2.430       .  S
O2738      H2781   0.990       .  S
O2739      H2780   0.990       .  S
O2739      H2784   0.990       .  S
Zr2740     O2744   2.356       .  S
Zr2740     O2743   2.372       .  S
Zr2740     O2768   2.377       .  S
Zr2740     O2770   2.351       .  S
Zr2740     O2741   2.437       .  S
Zr2740     O2742   2.429       .  S
O2741      H2782   0.990       .  S
O2741      H2785   0.990       .  S
O2742      H2775   0.990       .  S
O2743     Zr2763   2.385       .  S
O2744     Zr2764   2.399       .  S
O2744      H2771   0.966       .  S
O2746     Zr2764   2.447       .  S
O2746      C2747   1.289       .  A
O2748     Zr2760   2.396       .  S
O2748      C2750   1.279   1_554  A
O2749     Zr2763   2.456   1_556  S
O2749      C2750   1.290       .  A
C2750      C3111   1.479       .  S
O2751     Zr2760   2.353       .  S
O2751      C2753   1.270       .  A
O2752     Zr2764   2.414       .  S
O2752      C2753   1.287       .  A
C2753      C2862   1.429       .  S
O2755     Zr2763   2.383   1_556  S
O2755      C2756   1.282       .  A
Zr2757     O2765   2.348       .  S
Zr2757     O2766   2.387       .  S
Zr2757     O2769   2.380       .  S
Zr2757     O2767   2.334       .  S
Zr2757     O2758   2.435       .  S
O2758      H2778   0.990       .  S
O2759      H2779   0.990       .  S
Zr2760     O2766   2.352       .  S
Zr2760     O2765   2.378       .  S
Zr2760     O2770   2.368       .  S
Zr2760     O2768   2.352       .  S
Zr2760     O2761   2.435       .  S
Zr2760     O2762   2.439       .  S
O2761      H2777   0.990       .  S
O2762      H2776   0.990       .  S
O2762      H2786   0.990       .  S
Zr2763     O2766   2.377       .  S
Zr2763     O2768   2.381       .  S
Zr2763     O2769   2.377       .  S
Zr2764     O2765   2.377       .  S
Zr2764     O2767   2.366       .  S
Zr2764     O2770   2.369       .  S
O2765      H2773   0.966       .  S
O2768      H2772   0.966       .  S
O2788     Zr2825   2.511       .  S
O2788      C2789   1.301       .  A
O2790     Zr2802   2.410       .  S
O2790      C2792   1.281       .  A
O2791     Zr2826   2.519       .  S
O2791      C2792   1.304       .  A
C2792      C3121   1.519   1_554  S
O2793     Zr2802   2.408       .  S
O2793      C2795   1.274       .  A
O2794     Zr2825   2.405       .  S
O2794      C2795   1.278       .  A
O2797     Zr2826   2.514       .  S
O2797      C2798   1.310       .  A
Zr2799     O2805   2.321       .  S
Zr2799     O2806   2.373       .  S
Zr2799     O2829   2.370       .  S
Zr2799     O2831   2.346       .  S
Zr2799     O2800   2.433   1_554  S
O2800      H2843   0.991       .  S
O2801      H2842   0.989       .  S
O2801      H2846   0.990       .  S
Zr2802     O2806   2.360       .  S
Zr2802     O2805   2.351       .  S
Zr2802     O2830   2.370       .  S
Zr2802     O2832   2.360       .  S
Zr2802     O2803   2.432   1_554  S
Zr2802     O2804   2.431       .  S
O2803      H2844   0.990       .  S
O2803      H2847   0.990       .  S
O2804      H2837   0.990       .  S
O2805     Zr2825   2.374       .  S
O2806     Zr2826   2.394       .  S
O2806      H2833   0.964       .  S
O2808     Zr2826   2.557       .  S
O2808      C2809   1.312       .  A
O2810     Zr2822   2.411       .  S
O2810      C2812   1.282       .  A
O2811     Zr2825   2.492       .  S
O2811      C2812   1.300       .  A
C2812      C3021   1.501       .  S
O2813     Zr2822   2.382       .  S
O2813      C2815   1.276       .  A
O2814     Zr2826   2.464       .  S
O2814      C2815   1.295       .  A
C2815      C2879   1.449       .  S
O2817     Zr2825   2.406       .  S
O2817      C2818   1.283       .  A
Zr2819     O2827   2.348       .  S
Zr2819     O2828   2.360       .  S
Zr2819     O2831   2.354       .  S
Zr2819     O2829   2.356       .  S
Zr2819     O2820   2.440       .  S
O2820      H2840   0.990       .  S
O2821      H2841   0.990       .  S
Zr2822     O2828   2.352       .  S
Zr2822     O2827   2.357       .  S
Zr2822     O2832   2.369       .  S
Zr2822     O2830   2.350       .  S
Zr2822     O2823   2.433       .  S
Zr2822     O2824   2.435       .  S
O2823      H2839   0.991       .  S
O2824      H2838   0.990       .  S
O2824      H2848   0.990       .  S
Zr2825     O2828   2.383       .  S
Zr2825     O2830   2.421       .  S
Zr2825     O2831   2.401       .  S
Zr2826     O2827   2.403       .  S
Zr2826     O2829   2.406       .  S
Zr2826     O2832   2.421       .  S
O2827      H2835   0.963       .  S
O2830      H2834   0.966       .  S
C2849      C3008   1.604       .  S
C2849      C3161   1.599       .  S
C2849      C3198   1.571       .  S
C2849      C3221   1.582       .  S
C2850      C3001   1.629       .  S
C2850      C3138   1.578       .  S
C2850      C3208   1.600       .  S
C2850      C3241   1.581       .  S
O2851     Zr2863   2.430       .  S
O2851      C2853   1.285       .  A
O2852     Zr2889   2.523       .  S
O2852      C2853   1.304       .  A
C2853      C2998   1.534       .  S
O2854     Zr2866   2.451       .  S
O2854      C2856   1.288       .  A
O2855     Zr2890   2.470       .  S
O2855      C2856   1.294       .  A
C2856      C2978   1.498       .  S
O2857     Zr2866   2.359       .  S
O2857      C2859   1.272       .  A
O2858     Zr2889   2.425       .  S
O2858      C2859   1.291       .  A
O2860     Zr2863   2.357       .  S
O2860      C2862   1.272       .  A
O2861     Zr2890   2.419       .  S
O2861      C2862   1.289       .  A
Zr2863     O2869   2.338       .  S
Zr2863     O2870   2.387       .  S
Zr2863     O2893   2.384       .  S
Zr2863     O2895   2.348       .  S
Zr2863     O2864   2.435       .  S
Zr2863     O2865   2.437       .  S
O2864      H2907   0.990       .  S
O2865      H2906   0.990       .  S
O2865      H2910   0.990       .  S
Zr2866     O2870   2.345       .  S
Zr2866     O2869   2.385       .  S
Zr2866     O2894   2.392       .  S
Zr2866     O2896   2.341       .  S
Zr2866     O2867   2.438       .  S
Zr2866     O2868   2.437       .  S
O2867      H2908   0.990       .  S
O2867      H2911   0.990       .  S
O2868      H2901   0.990       .  S
O2869     Zr2889   2.377       .  S
O2870     Zr2890   2.383       .  S
O2870      H2897   0.966       .  S
O2871     Zr2883   2.442       .  S
O2871      C2873   1.289       .  A
O2872     Zr2890   2.483       .  S
O2872      C2873   1.296       .  A
C2873      C3011   1.510       .  S
O2874     Zr2886   2.500       .  S
O2874      C2876   1.300       .  A
O2875     Zr2889   2.473       .  S
O2875      C2876   1.297       .  A
C2876      C2991   1.522       .  S
O2877     Zr2886   2.457       .  S
O2877      C2879   1.294       .  A
O2878     Zr2890   2.400       .  S
O2878      C2879   1.280       .  A
O2880     Zr2883   2.394       .  S
O2880      C2882   1.279       .  A
O2881     Zr2889   2.443       .  S
O2881      C2882   1.293       .  A
C2882      C2935   1.456       .  S
Zr2883     O2891   2.358       .  S
Zr2883     O2892   2.376       .  S
Zr2883     O2895   2.388       .  S
Zr2883     O2893   2.356       .  S
Zr2883     O2884   2.437       .  S
Zr2883     O2885   2.435       .  S
O2884      H2904   0.990       .  S
O2884      H2909   0.990       .  S
O2885      H2905   0.990       .  S
Zr2886     O2892   2.361       .  S
Zr2886     O2891   2.387       .  S
Zr2886     O2896   2.379       .  S
Zr2886     O2894   2.363       .  S
Zr2886     O2887   2.433       .  S
Zr2886     O2888   2.436       .  S
O2887      H2903   0.990       .  S
O2888      H2902   0.990       .  S
O2888      H2912   0.990       .  S
Zr2889     O2892   2.388       .  S
Zr2889     O2894   2.410       .  S
Zr2889     O2895   2.385       .  S
Zr2890     O2891   2.397       .  S
Zr2890     O2893   2.388       .  S
Zr2890     O2896   2.390       .  S
O2891      H2899   0.966       .  S
O2894      H2898   0.966       .  S
O2895      H2900   0.966       .  S
O2913     Zr2925   2.369       .  S
O2913      C2915   1.274       .  A
O2914     Zr2951   2.406       .  S
O2914      C2915   1.286       .  A
O2916     Zr2928   2.364       .  S
O2916      C2918   1.274       .  A
O2917     Zr2952   2.442       .  S
O2917      C2918   1.294       .  A
O2919     Zr2928   2.455       .  S
O2919      C2921   1.289       .  A
O2920     Zr2951   2.463       .  S
O2920      C2921   1.294       .  A
C2921      C3281   1.502       .  S
O2922     Zr2925   2.438       .  S
O2922      C2924   1.287       .  A
O2923     Zr2952   2.515       .  S
O2923      C2924   1.301       .  A
C2924      C3051   1.533       .  S
Zr2925     O2931   2.388       .  S
Zr2925     O2932   2.342       .  S
Zr2925     O2955   2.349       .  S
Zr2925     O2957   2.382       .  S
Zr2925     O2926   2.435       .  S
Zr2925     O2927   2.437       .  S
O2926      H2969   0.990       .  S
O2927      H2968   0.990       .  S
O2927      H2972   0.990       .  S
Zr2928     O2932   2.385       .  S
Zr2928     O2931   2.344       .  S
Zr2928     O2956   2.332       .  S
Zr2928     O2958   2.396       .  S
Zr2928     O2929   2.436       .  S
Zr2928     O2930   2.429       .  S
O2929      H2970   0.990       .  S
O2929      H2973   0.990       .  S
O2930      H2963   0.990       .  S
O2931     Zr2951   2.378       .  S
O2932     Zr2952   2.389       .  S
O2932      H2959   0.965       .  S
O2933     Zr2945   2.398       .  S
O2933      C2935   1.280       .  A
O2934     Zr2952   2.444       .  S
O2934      C2935   1.294       .  A
O2936     Zr2948   2.450       .  S
O2936      C2938   1.294       .  A
O2937     Zr2951   2.402       .  S
O2937      C2938   1.280       .  A
O2939     Zr2948   2.490       .  S
O2939      C2941   1.299       .  A
O2940     Zr2952   2.486       .  S
O2940      C2941   1.298       .  A
C2941      C3091   1.530       .  S
O2942     Zr2945   2.451       .  S
O2942      C2944   1.289       .  A
O2943     Zr2951   2.478       .  S
O2943      C2944   1.296       .  A
C2944      C3128   1.500       .  S
Zr2945     O2953   2.381       .  S
Zr2945     O2954   2.360       .  S
Zr2945     O2957   2.354       .  S
Zr2945     O2955   2.394       .  S
Zr2945     O2946   2.437       .  S
Zr2945     O2947   2.431       .  S
O2946      H2966   0.990       .  S
O2946      H2971   0.990       .  S
O2947      H2967   0.989       .  S
Zr2948     O2954   2.387       .  S
Zr2948     O2953   2.358       .  S
Zr2948     O2958   2.364       .  S
Zr2948     O2956   2.373       .  S
Zr2948     O2949   2.433       .  S
Zr2948     O2950   2.436       .  S
O2949      H2965   0.990       .  S
O2950      H2964   0.990       .  S
O2950      H2974   0.990       .  S
Zr2951     O2954   2.391       .  S
Zr2951     O2956   2.385       .  S
Zr2951     O2957   2.390       .  S
Zr2952     O2953   2.398       .  S
Zr2952     O2955   2.395       .  S
Zr2952     O2958   2.406       .  S
O2953      H2961   0.965       .  S
O2956      H2960   0.965       .  S
O2957      H2962   0.966       .  S
C2975      C2988   1.604       .  S
C2975      C3171   1.600       .  S
C2975      C3181   1.585       .  S
C2975      C3251   1.565       .  S
C2976      C2981   1.577       .  S
C2976      C3148   1.574       .  S
C2976      C3188   1.555       .  S
C2976      C3228   1.567       .  S
C2977      C2978   1.404       .  A
C2977      C2982   1.413       .  A
C2977      H2984   1.083       .  S
C2978      C2979   1.405       .  A
C2979      C2980   1.404       .  A
C2979      F2986   1.358       .  S
C2980      C2981   1.418       .  A
C2980      H2985   1.082       .  S
C2981      C2982   1.427       .  A
C2982      F2983   1.354       .  S
C2987      C2988   1.422       .  A
C2987      C2992   1.423       .  A
C2987      H2994   1.078       .  S
C2988      C2989   1.433       .  A
C2989      C2990   1.413       .  A
C2989      F2996   1.358       .  S
C2990      C2991   1.403       .  A
C2990      H2995   1.083       .  S
C2991      C2992   1.412       .  A
C2992      F2993   1.355       .  S
C2997      C2998   1.410       .  A
C2997      C3002   1.430       .  A
C2997      H3004   1.083       .  S
C2998      C2999   1.414       .  A
C2999      C3000   1.403       .  A
C2999      F3006   1.358       .  S
C3000      C3001   1.424       .  A
C3000      H3005   1.077       .  S
C3001      C3002   1.439       .  A
C3002      F3003   1.351       .  S
C3007      C3008   1.430       .  A
C3007      C3012   1.420       .  A
C3007      H3014   1.082       .  S
C3008      C3009   1.429       .  A
C3009      C3010   1.399       .  A
C3009      F3016   1.346       .  S
C3010      C3011   1.400       .  A
C3010      H3015   1.084       .  S
C3011      C3012   1.407       .  A
C3012      F3013   1.357       .  S
C3017      C3018   1.430       .  A
C3017      C3022   1.406       .  A
C3017      H3024   1.068       .  S
C3018      C3019   1.421       .  A
C3019      C3020   1.405       .  A
C3019      F3026   1.356       .  S
C3020      C3021   1.410       .  A
C3020      H3025   1.083       .  S
C3021      C3022   1.396       .  A
C3022      F3023   1.358       .  S
C3027      C3028   1.430       .  A
C3027      H3034   1.082       .  S
C3028      C3029   1.419       .  A
C3029      C3030   1.412       .  A
C3029      F3036   1.345       .  S
C3030      C3031   1.400       .  A
C3030      H3035   1.082       .  S
C3032      F3033   1.358       .  S
C3037      C3038   1.416       .  A
C3037      C3042   1.411       .  A
C3037      H3044   1.081       .  S
C3038      C3039   1.423       .  A
C3039      C3040   1.393       .  A
C3039      F3046   1.359       .  S
C3040      C3041   1.397       .  A
C3040      H3045   1.084       .  S
C3041      C3042   1.407       .  A
C3047      C3048   1.422       .  A
C3047      C3052   1.398       .  A
C3047      H3054   1.077       .  S
C3048      C3049   1.431       .  A
C3049      C3050   1.432       .  A
C3049      F3056   1.358       .  S
C3050      C3051   1.415       .  A
C3050      H3055   1.082       .  S
C3051      C3052   1.414       .  A
C3052      F3053   1.358       .  S
C3057      C3058   1.425       .  A
C3057      C3062   1.394       .  A
C3057      H3064   1.077       .  S
C3058      C3059   1.418       .  A
C3059      C3060   1.417       .  A
C3059      F3066   1.358       .  S
C3060      C3061   1.415       .  A
C3060      H3065   1.083       .  S
C3061      C3062   1.402       .  A
C3062      F3063   1.358       .  S
C3067      C3068   1.419       .  A
C3067      C3072   1.398       .  A
C3067      H3074   1.080       .  S
C3068      C3069   1.409       .  A
C3069      C3070   1.426       .  A
C3069      F3076   1.356   1_565  S
C3070      C3071   1.433       .  A
C3070      H3075   1.082       .  S
C3071      C3072   1.412       .  A
C3072      F3073   1.354       .  S
C3077      C3078   1.424       .  A
C3077      C3082   1.409       .  A
C3077      H3084   1.072       .  S
C3078      C3079   1.425       .  A
C3079      C3080   1.412       .  A
C3079      F3086   1.358       .  S
C3080      C3081   1.403       .  A
C3081      C3082   1.401       .  A
C3082      F3083   1.358       .  S
C3087      C3088   1.426       .  A
C3087      C3092   1.407       .  A
C3087      H3094   1.065       .  S
C3088      C3089   1.433       .  A
C3089      C3090   1.429       .  A
C3089      F3096   1.356       .  S
C3090      C3091   1.414       .  A
C3090      H3095   1.083       .  S
C3091      C3092   1.405       .  A
C3092      F3093   1.358       .  S
C3097      C3098   1.398       .  A
C3097      C3102   1.410       .  A
C3097      H3104   1.083       .  S
C3098      C3099   1.407       .  A
C3099      C3100   1.389       .  A
C3099      F3106   1.359       .  S
C3100      C3101   1.421       .  A
C3100      H3105   1.074       .  S
C3101      C3102   1.436       .  A
C3102      F3103   1.346       .  S
C3107      C3108   1.424       .  A
C3107      C3112   1.402       .  A
C3107      H3114   1.081       .  S
C3108      C3109   1.413       .  A
C3109      C3110   1.390       .  A
C3109      F3116   1.357       .  S
C3110      C3111   1.406       .  A
C3110      H3115   1.083       .  S
C3111      C3112   1.399       .  A
C3112      F3113   1.357       .  S
C3117      C3118   1.434       .  A
C3117      C3122   1.421       .  A
C3117      H3124   1.065       .  S
C3118      C3119   1.427       .  A
C3119      C3120   1.394       .  A
C3119      F3126   1.353       .  S
C3120      C3121   1.409       .  A
C3120      H3125   1.079       .  S
C3121      C3122   1.401       .  A
C3122      F3123   1.357   1_556  S
C3127      C3128   1.402       .  A
C3127      C3132   1.413       .  A
C3127      H3134   1.083       .  S
C3128      C3129   1.404       .  A
C3129      C3130   1.407       .  A
C3129      F3136   1.357       .  S
C3130      C3131   1.426       .  A
C3130      H3135   1.083       .  S
C3131      C3132   1.431       .  A
C3132      F3133   1.354       .  S
C3137      C3138   1.410       .  A
C3137      C3142   1.402       .  A
C3137      H3144   1.081       .  S
C3138      C3139   1.432       .  A
C3139      C3140   1.416       .  A
C3139      F3146   1.355       .  S
C3140      C3141   1.403       .  A
C3140      H3145   1.083       .  S
C3141      C3142   1.417       .  A
C3142      F3143   1.357       .  S
C3147      C3148   1.416       .  A
C3147      C3152   1.396   1_554  A
C3147      H3154   1.083       .  S
C3149      C3150   1.412       .  A
C3149      F3156   1.351       .  S
C3150      C3151   1.402   1_554  A
C3150      H3155   1.084   1_554  S
C3152      F3153   1.359       .  S
C3157      C3158   1.398   1_554  A
C3157      C3162   1.417       .  A
C3157      H3164   1.081   1_554  S
C3158      C3159   1.410       .  A
C3159      C3160   1.401   1_556  A
C3159      F3166   1.359       .  S
C3160      C3161   1.415       .  A
C3160      H3165   1.071       .  S
C3161      C3162   1.439       .  A
C3162      F3163   1.353       .  S
C3167      C3168   1.416       .  A
C3167      H3174   1.080       .  S
C3168      C3169   1.408       .  A
C3169      F3176   1.356       .  S
C3170      C3171   1.436       .  A
C3170      H3175   1.082       .  S
C3171      C3172   1.417       .  A
C3172      F3173   1.351       .  S
C3177      C3178   1.391       .  A
C3177      C3182   1.394       .  A
C3177      H3184   1.084       .  S
C3178      C3179   1.406       .  A
C3179      C3180   1.412       .  A
C3179      F3186   1.357       .  S
C3180      C3181   1.421       .  A
C3180      H3185   1.083       .  S
C3181      C3182   1.437       .  A
C3182      F3183   1.353       .  S
C3187      C3192   1.383   1_455  A
C3187      H3194   1.083       .  S
C3188      C3189   1.421       .  A
C3189      C3190   1.404       .  A
C3189      F3196   1.354       .  S
C3190      H3195   1.083       .  S
C3191      C3192   1.394       .  A
C3192      F3193   1.359   1_554  S
C3197      C3198   1.416       .  A
C3197      C3202   1.379       .  A
C3197      H3204   1.069       .  S
C3198      C3199   1.430       .  A
C3199      C3200   1.410       .  A
C3199      F3206   1.355       .  S
C3200      C3201   1.400       .  A
C3200      H3205   1.081       .  S
C3201      C3202   1.393       .  A
C3202      F3203   1.359   1_554  S
C3207      C3208   1.418       .  A
C3207      C3212   1.406       .  A
C3207      H3214   1.062       .  S
C3209      C3210   1.399       .  A
C3209      F3216   1.355       .  S
C3210      C3211   1.389       .  A
C3210      H3215   1.084       .  S
C3212      F3213   1.358       .  S
C3217      C3218   1.400       .  A
C3217      C3222   1.409       .  A
C3217      H3224   1.081       .  S
C3218      C3219   1.392       .  A
C3219      C3220   1.394       .  A
C3219      F3226   1.358       .  S
C3220      C3221   1.426       .  A
C3220      H3225   1.075       .  S
C3221      C3222   1.421       .  A
C3222      F3223   1.357       .  S
C3227      C3228   1.416       .  A
C3227      H3234   1.083       .  S
C3229      C3230   1.389   1_455  A
C3229      F3236   1.357   1_455  S
C3230      H3235   1.085       .  S
C3232      F3233   1.357       .  S
C3237      C3242   1.417       .  A
C3237      H3244   1.081       .  S
C3238      C3239   1.405       .  A
C3239      C3240   1.397   1_655  A
C3239      F3246   1.358       .  S
C3240      H3245   1.084       .  S
C3241      C3242   1.426       .  A
C3242      F3243   1.354       .  S
C3247      C3252   1.398       .  A
C3247      H3254   1.083       .  S
C3248      C3249   1.409   1_545  A
C3249      C3250   1.411       .  A
C3249      F3256   1.355       .  S
C3250      H3255   1.080       .  S
C3251      C3252   1.427       .  A
C3252      F3253   1.358       .  S
C3257      C3258   1.405       .  A
C3257      H3264   1.073       .  S
C3258      C3259   1.439       .  A
C3259      C3260   1.412       .  A
C3259      F3266   1.357       .  S
C3260      C3261   1.396       .  A
C3260      H3265   1.083   1_556  S
C3262      F3263   1.357       .  S
C3267      C3268   1.419       .  A
C3267      H3274   1.077       .  S
C3268      C3269   1.419       .  A
C3269      C3270   1.393       .  A
C3269      F3276   1.358       .  S
C3270      H3275   1.083       .  S
C3271      C3272   1.400       .  A
C3272      F3273   1.356       .  S
C3277      C3278   1.426       .  A
C3277      C3282   1.408       .  A
C3277      H3284   1.076       .  S
C3278      C3279   1.429       .  A
C3279      C3280   1.411       .  A
C3279      F3286   1.358       .  S
C3280      C3281   1.404       .  A
C3280      H3285   1.083       .  S
C3281      C3282   1.399       .  A
C3282      F3283   1.354       .  S
C3287      C3288   1.420       .  A
C3287      H3294   1.077       .  S
C3288      C3289   1.420       .  A
C3289      C3290   1.396       .  A
C3289      F3296   1.359       .  S
C3290      C3291   1.401       .  A
C3290      H3295   1.084       .  S
C3292      F3293   1.358       .  S
