geometry optimzed in LAMMPS
_audit_creation_date              2020-11-30 
_audit_creation_method            'lammps2cif' 
_symmetry_space_group_name_H-M    'P1' 
_symmetry_Int_Tables_number       1 
_symmetry_cell_setting            triclinic 
loop_ 
_symmetry_equiv_pos_as_xyz 
  x,y,z 
_cell_length_a                    31.01040268 
_cell_length_b                    30.85907604444846 
_cell_length_c                    31.198479184822183 
_cell_angle_alpha                 89.45688899189439 
_cell_angle_beta                  90.02362530399823 
_cell_angle_gamma                 120.86830159019188 
loop_ 
_atom_site_label 
_atom_site_type_symbol 
_atom_site_fract_x 
_atom_site_fract_y 
_atom_site_fract_z 
_atom_site_charge 
C1          C  0.75912366  0.16509623  0.49546650     0.03600
C2          C  0.77515393  0.20889578  0.51971730    -0.12600
C3          C  0.82651794  0.23089984  0.03761954     0.01100
C4          C  0.85756530  0.21000035  0.03538535    -0.11100
C5          C  0.84345408  0.16691459  0.01076981     0.03600
C6          C  0.79007121  0.14415060  0.49337848    -0.10500
H7          H  0.75172497  0.22545280  0.52136070     0.09100
H8          H  0.89232905  0.22679531  0.05328067     0.06700
H9          H  0.77877178  0.11118974  0.47398232     0.06500
C10         C  0.11714546  0.38399077  0.43917449     0.03600
C11         C  0.15951671  0.40912957  0.46600264    -0.12600
C12         C  0.18722378  0.37814082  0.98643630     0.01100
C13         C  0.15752762  0.32538435  0.98600323    -0.11100
C14         C  0.10636480  0.30311055  0.46188653     0.03600
C15         C  0.09029948  0.33080220  0.43772344    -0.10500
H16         H  0.18018687  0.44996965  0.46752255     0.09100
H17         H  0.16656931  0.30305670  0.00704236     0.06700
H18         H  0.05696109  0.31108077  0.41811339     0.06500
C19         C  0.31219243  0.20078254  0.06237077     0.03600
C20         C  0.33704377  0.24388673  0.03554889    -0.12600
C21         C  0.30405093  0.25476699  0.50462283     0.01100
C22         C  0.25222489  0.22218828  0.49991528    -0.11100
C23         C  0.23297226  0.17687763  0.02636562     0.03600
C24         C  0.26006613  0.16692345  0.05711731    -0.10500
H25         H  0.37710101  0.26946211  0.03887119     0.09100
H26         H  0.23239178  0.23122069  0.47620858     0.06700
H27         H  0.24074574  0.13271331  0.07631874     0.06500
C28         C  0.15384356  0.88657335  0.43395928     0.03600
C29         C  0.13061442  0.91570247  0.43600669    -0.12600
C30         C  0.09211102  0.90373033  0.46570900     0.01100
C31         C  0.08929414  0.86486465  0.99763439    -0.11100
C32         C  0.11335121  0.83690131  0.99502250     0.03600
C33         C  0.13883486  0.84590416  0.46315556    -0.10500
H34         H  0.14183338  0.94716487  0.41404238     0.09100
H35         H  0.06172399  0.85615358  0.02272742     0.06700
H36         H  0.15774987  0.82461236  0.46315749     0.06500
C37         C  0.82040592  0.69633602  0.48469773     0.03600
C38         C  0.84288575  0.74889591  0.48114931    -0.12600
C39         C  0.83586963  0.77668506  0.51297675     0.01100
C40         C  0.81218743  0.75214018  0.05293209    -0.11100
C41         C  0.79114091  0.69972368  0.05912492     0.03600
C42         C  0.79149051  0.67149380  0.52114969    -0.10500
H43         H  0.86531571  0.76827670  0.45301601     0.09100
H44         H  0.80396742  0.77377916  0.07502699     0.06700
H45         H  0.77369794  0.63083520  0.52369914     0.06500
C46         C  0.63503977  0.90429114  0.99384540     0.03600
C47         C  0.60429836  0.87302967  0.45589581    -0.12600
C48         C  0.62945191  0.85222229  0.43452085     0.01100
C49         C  0.68166746  0.87444216  0.43920966    -0.11100
C50         C  0.70911133  0.91873866  0.46255517     0.03600
C51         C  0.68785757  0.93026899  0.99307399    -0.10500
H52         H  0.56386295  0.85492804  0.45358674     0.09100
H53         H  0.70131079  0.85837249  0.42339593     0.06700
H54         H  0.70907421  0.96339299  0.01272877     0.06500
O55         O  0.94826540  0.10581821  0.45489052    -0.87900
C56         C  0.04693540  0.11661023  0.05448749     0.88100
Mg57       Mg  0.87064538  0.04905621  0.45757413     1.58100
O58         O  0.05603638  0.06320974  0.45668895    -0.87600
O59         O  0.01358444  0.12853355  0.41350089    -0.75000
C60         C  0.86758999  0.83217343  0.01142545     0.93200
O61         O  0.92965824  0.08343625  0.05838391    -0.74800
O62         O  0.84209811  0.85333160  0.01809189    -0.82300
Mg63       Mg  0.98303484  0.14950156  0.01360161     1.58000
C64         C  0.06577212  0.93227715  0.46795427     0.93100
O65         O  0.03105553  0.22454988  0.47445747    -0.80600
H66         H  0.06964047  0.06680484  0.39371631    -0.05900
C67         C  0.97640334  0.96264527  0.05615053     0.88000
O68         O  0.88308516  0.99666347  0.41389176    -0.75100
O69         O  0.03763973  0.12590415  0.01810221    -0.87800
O70         O  0.08987910  0.97861547  0.47919777    -0.80600
C71         C  0.17885633  0.14138008  0.01762286     0.93200
C72         C  0.07759473  0.24739474  0.46448925     0.93100
Mg73       Mg  0.95979566  0.93101159  0.45778170     1.58000
O74         O  0.91253030  0.85660572  0.99724574    -0.80600
O75         O  0.01408526  0.99815472  0.41485620    -0.74800
O76         O  0.15407324  0.15984219  0.00108777    -0.80600
O77         O  0.92370604  0.17284121  0.01120727    -0.82400
O78         O  0.78473204  0.91843967  0.47678710    -0.80700
C79         C  0.04808014  0.04382734  0.42088175     0.87500
O80         O  0.90369875  0.95235615  0.45515570    -0.87800
O81         O  0.99708274  0.97427203  0.02059751    -0.87900
O82         O  0.93103021  0.95087117  0.06131463    -0.75000
Mg83       Mg  0.07770473  0.14152784  0.45859756     1.58000
O84         O  0.15915695  0.09397209  0.02375522    -0.82400
H85         H  0.94635670  0.11560431  0.39160074    -0.06100
O86         O  0.88945635  0.01640742  0.01834597    -0.87600
H87         H  0.87610607  0.01463650  0.08125827    -0.05900
H88         H  0.89508821  0.94202271  0.39185908    -0.06100
C89         C  0.89706355  0.03697165  0.05360572     0.87500
C90         C  0.96836200  0.11710265  0.41909000     0.88100
C91         C  0.89355911  0.96222781  0.41939194     0.88100
H92         H  0.99809104  0.96418646  0.08389851    -0.06100
O93         O  0.05889482  0.08339290  0.06131853    -0.75100
Mg94       Mg  0.86575458  0.93699319  0.01744456     1.58000
H95         H  0.04348992  0.13640592  0.08146841    -0.06100
C96         C  0.87633532  0.14520133  0.00636802     0.93100
O97         O  0.78915786  0.99129624  0.46106720    -0.82300
C98         C  0.76411131  0.94383291  0.46640298     0.93200
O99         O  0.10150365  0.22422771  0.46076824    -0.82300
Mg100      Mg  0.07560399  0.03159234  0.02061213     1.58200
O101        O  0.85073036  0.10108780  0.49341768    -0.80600
O102        O  0.01852252  0.90814901  0.46183083    -0.82300
C103        C  0.92195117  0.56326744  0.26982889     0.86900
C104        C  0.95626849  0.60765361  0.24013812    -0.53300
C105        C  0.98902370  0.60073113  0.21627068     0.09800
C106        C  0.98484686  0.54937648  0.22474323     0.20800
C107        C  0.89619429  0.51711847  0.24018654    -0.54000
C108        C  0.92919653  0.50966882  0.21658972     0.09900
C109        C  0.95844674  0.55493852  0.29692522    -0.53600
C110        C  0.99065519  0.54667224  0.27364200     0.10500
H111        H  0.95472893  0.64182110  0.23752235     0.15000
H112        H  0.01235995  0.54451378  0.20596236     0.00800
H113        H  0.85572115  0.49221345  0.23866866     0.15300
H114        H  0.95696074  0.55271627  0.33171958     0.15100
C115        C  0.50338346  0.01987430  0.20676067     0.86900
C116        C  0.53765177  0.03720719  0.24590096    -0.53300
C117        C  0.52517816  0.06027457  0.27628578     0.09800
C118        C  0.47864326  0.06381900  0.26469454     0.20800
C119        C  0.45000535  0.98525357  0.22574318    -0.54000
C120        C  0.43708981  0.00873661  0.25618206     0.09900
C121        C  0.50335501  0.06694265  0.19049454    -0.53600
C122        C  0.48924806  0.08941386  0.22026456     0.10500
H123        H  0.56883424  0.03084789  0.24963836     0.15000
H124        H  0.46910733  0.08311430  0.28952738     0.00800
H125        H  0.42484505  0.94668540  0.21568248     0.15300
H126        H  0.50846649  0.07788137  0.15682066     0.15100
C127        C  0.42731004  0.50778136  0.20423304     0.86900
C128        C  0.40522432  0.46843267  0.24016182    -0.53300
C129        C  0.43717187  0.47754539  0.27339424     0.09800
C130        C  0.48939052  0.52508688  0.26693998     0.20800
C131        C  0.44508566  0.55870368  0.22677010    -0.54000
C132        C  0.47811400  0.56773279  0.25962882     0.09900
C133        C  0.47568042  0.50971750  0.19072689    -0.53600
C134        C  0.50873418  0.51964549  0.22319151     0.10500
H135        H  0.36672738  0.43687744  0.23991493     0.15000
H136        H  0.51532405  0.53099718  0.29369388     0.00800
H137        H  0.43361148  0.58524934  0.21747411     0.15300
H138        H  0.48534493  0.50915199  0.15731969     0.15100
C139        C  0.52593438  0.95369598  0.12448567     0.30200
C140        C  0.51582637  0.91473076  0.09552662    -0.36100
C141        C  0.55571859  0.92325509  0.06807130     0.16200
C142        C  0.60215143  0.96694050  0.06930540     0.22000
C143        C  0.61207007  0.00578401  0.09775130    -0.34300
C144        C  0.57246450  0.99734532  0.12487749     0.16100
O145        O  0.49471577  0.95420797  0.15337984    -0.26300
C146        C  0.52194666  0.99897198  0.17222381     0.05900
C147        C  0.57041866  0.02708489  0.15550722    -0.31200
O148        O  0.63486396  0.96637767  0.04273774    -0.23000
C149        C  0.60952110  0.92179705  0.02357991    -0.03000
C150        C  0.55972688  0.89338511  0.03799282    -0.17400
H151        H  0.47969843  0.88007892  0.09474685     0.20600
H152        H  0.64849895  0.04006126  0.09905034     0.19000
H153        H  0.59989139  0.06445937  0.16468545     0.18900
H154        H  0.53044467  0.86745519  0.51973871     0.14800
C155        C  0.58819219  0.74245041  0.37471735     0.30200
C156        C  0.59116226  0.70204388  0.35840810    -0.36100
C157        C  0.55342245  0.67102333  0.32973914     0.16200
C158        C  0.51531453  0.67903738  0.31745269     0.22000
C159        C  0.51228393  0.71970712  0.33392634    -0.34300
C160        C  0.55001117  0.75070575  0.36313309     0.16100
O161        O  0.62017391  0.77634850  0.40148017    -0.26300
C162        C  0.60232112  0.80679952  0.40777287     0.05900
C163        C  0.55852242  0.79264511  0.38476532    -0.31200
O164        O  0.48385379  0.64451558  0.29035025    -0.23000
C165        C  0.50217431  0.61405415  0.28568828    -0.03000
C166        C  0.54556356  0.62913230  0.30931276    -0.17400
H167        H  0.62084807  0.69519839  0.36752825     0.20600
H168        H  0.48260271  0.72654797  0.32481511     0.19000
H169        H  0.53704973  0.81131757  0.38318857     0.18900
H170        H  0.56845619  0.61204584  0.31132138     0.14800
C171        C  0.63279082  0.60182092  0.19307425     0.30200
C172        C  0.67285789  0.65022194  0.18229449    -0.36100
C173        C  0.70449288  0.65264206  0.14900364     0.16200
C174        C  0.69769334  0.61028673  0.12836338     0.22000
C175        C  0.65828486  0.56190415  0.13962702    -0.34300
C176        C  0.62614358  0.55952271  0.17230325     0.16100
O177        O  0.59416298  0.59181616  0.21775026    -0.26300
C178        C  0.56241657  0.54257316  0.21274789     0.05900
C179        C  0.58050080  0.52053327  0.18496382    -0.31200
O180        O  0.72824129  0.62140734  0.09541258    -0.23000
C181        C  0.75510162  0.67165883  0.09448862    -0.03000
C182        C  0.74203640  0.69311269  0.12747405    -0.17400
H183        H  0.67686796  0.68388001  0.19664973     0.20600
H184        H  0.65110130  0.52880029  0.12205287     0.19000
H185        H  0.56037377  0.48276393  0.17209086     0.18900
H186        H  0.75610071  0.73255391  0.13371271     0.14800
C187        C  0.83747222  0.64992698  0.38752934     0.30200
C188        C  0.84892350  0.65209362  0.34380832    -0.36100
C189        C  0.85745400  0.61435304  0.32899886     0.16200
C190        C  0.85490057  0.57696923  0.35528703     0.22000
C191        C  0.84157786  0.57368988  0.39877148    -0.34300
C192        C  0.83320867  0.61160414  0.41367848     0.16100
O193        O  0.83328201  0.68428568  0.40884674    -0.26300
C194        C  0.82560920  0.66764687  0.44925429     0.05900
C195        C  0.82486191  0.62228448  0.45408462    -0.31200
O196        O  0.87255339  0.55100286  0.33652184    -0.23000
C197        C  0.88662182  0.57179993  0.29751732    -0.03000
C198        C  0.87663083  0.61067596  0.29098994    -0.17400
H199        H  0.85401560  0.68293078  0.32336052     0.20600
H200        H  0.84106301  0.54556976  0.42011752     0.19000
H201        H  0.82126010  0.60155432  0.48335608     0.18900
H202        H  0.88616377  0.63601430  0.26381362     0.14800
C203        C  0.05481448  0.67314089  0.12510531     0.30200
C204        C  0.06851651  0.68213588  0.08132332    -0.36100
C205        C  0.08479061  0.73128572  0.06563320     0.16200
C206        C  0.08702917  0.76847142  0.09142558     0.22000
C207        C  0.07479492  0.75995554  0.13499245    -0.34300
C208        C  0.05885135  0.71138499  0.15049304     0.16100
O209        O  0.03274848  0.62896557  0.14561571    -0.26300
C210        C  0.02283611  0.63957846  0.18449879     0.05900
C211        C  0.03915695  0.69048444  0.18920789    -0.31200
O212        O  0.09821528  0.80989680  0.07007069    -0.23000
C213        C  0.10418228  0.80012614  0.02984305    -0.03000
C214        C  0.09674613  0.75178596  0.02504970    -0.17400
H215        H  0.06441252  0.65237186  0.06053596     0.20600
H216        H  0.07521099  0.78862882  0.15502839     0.19000
H217        H  0.03379983  0.70893125  0.21629425     0.18900
H218        H  0.09720120  0.73356880  0.99572084     0.14800
C219        C  0.25519632  0.94788126  0.36153248     0.30200
C220        C  0.29262296  0.98951249  0.33873016    -0.36100
C221        C  0.32620243  0.98135516  0.31525421     0.16200
C222        C  0.32325436  0.93526826  0.31357672     0.22000
C223        C  0.28539532  0.89321772  0.33647355    -0.34300
C224        C  0.25192217  0.90160015  0.36065255     0.16100
O225        O  0.22123988  0.94814504  0.38666179    -0.26300
C226        C  0.19556478  0.90150927  0.40278596     0.05900
C227        C  0.21305333  0.87071836  0.38765089    -0.31200
O228        O  0.36061445  0.93746983  0.29098358    -0.23000
C229        C  0.38775789  0.98578105  0.27851930    -0.03000
C230        C  0.36772832  0.01442195  0.29267098    -0.17400
H231        H  0.29612473  0.02623347  0.34009487     0.20600
H232        H  0.28302122  0.85697463  0.33638838     0.19000
H233        H  0.19934988  0.83149271  0.39540979     0.18900
H234        H  0.38242947  0.05441437  0.28819905     0.14800
C235        C  0.40320249  0.19027280  0.12175444     0.30200
C236        C  0.45023337  0.19506831  0.12841472    -0.36100
C237        C  0.45325937  0.16712225  0.16280886     0.16200
C238        C  0.41303347  0.13725847  0.18947387     0.22000
C239        C  0.36611840  0.13304834  0.18317038    -0.34300
C240        C  0.36279796  0.16012505  0.14811220     0.16100
O241        O  0.39097716  0.20925287  0.08911088    -0.26300
C242        C  0.34186708  0.19071024  0.09410495     0.05900
C243        C  0.32239585  0.16000902  0.13054977    -0.31200
O244        O  0.42234359  0.10951876  0.21606929    -0.23000
C245        C  0.46901335  0.12149149  0.20626355    -0.03000
C246        C  0.49014118  0.15742669  0.17347622    -0.17400
H247        H  0.48147049  0.21667918  0.10669353     0.20600
H248        H  0.33365880  0.10787854  0.20255283     0.19000
H249        H  0.28392567  0.13950377  0.14191271     0.18900
H250        H  0.52560394  0.17069101  0.15712601     0.14800
C251        C  0.41650254  0.41034597  0.37056658     0.30200
C252        C  0.42663278  0.38650425  0.40446555    -0.36100
C253        C  0.38592499  0.35571684  0.43187113     0.16200
C254        C  0.33886595  0.34936396  0.42639130     0.22000
C255        C  0.32897324  0.37357296  0.39308182    -0.34300
C256        C  0.36919692  0.40352340  0.36552256     0.16100
O257        O  0.44767597  0.43820193  0.33936524    -0.26300
C258        C  0.41940733  0.44846434  0.31396735     0.05900
C259        C  0.37047626  0.42803221  0.32893342    -0.31200
O260        O  0.30507496  0.31531780  0.45263805    -0.23000
C261        C  0.33037680  0.29926945  0.47564238    -0.03000
C262        C  0.38117508  0.32356064  0.46435101    -0.17400
H263        H  0.46298624  0.38998358  0.40814402     0.20600
H264        H  0.29176414  0.36749458  0.38778016     0.19000
H265        H  0.33991931  0.43032135  0.31455123     0.18900
H266        H  0.40955239  0.31590089  0.47585479     0.14800
C267        C  0.28122625  0.45357724  0.06058376     0.30200
C268        C  0.30725384  0.49348436  0.08954132    -0.36100
C269        C  0.34021024  0.48897477  0.11773923     0.16200
C270        C  0.34688767  0.44809614  0.11707219     0.22000
C271        C  0.32156417  0.40881354  0.08798255    -0.34300
C272        C  0.28873542  0.41323199  0.06015000     0.16100
O273        O  0.24600525  0.44784148  0.03339552    -0.26300
C274        C  0.23077770  0.40311752  0.01564222     0.05900
C275        C  0.25671385  0.38036601  0.03083328    -0.31200
O276        O  0.37771787  0.45013766  0.14683516    -0.23000
C277        C  0.39161048  0.49298103  0.16713852    -0.03000
C278        C  0.36948550  0.51903990  0.15039182    -0.17400
H279        H  0.30123454  0.52502366  0.09076861     0.20600
H280        H  0.32616292  0.37633228  0.08784049     0.19000
H281        H  0.24563289  0.35074499  0.51990880     0.18900
H282        H  0.37356566  0.55423807  0.16091720     0.14800
C283        C  0.07414666  0.43425224  0.35946074     0.30200
C284        C  0.05451484  0.43656708  0.31944609    -0.36100
C285        C  0.04601543  0.47673778  0.31331106     0.16200
C286        C  0.05523612  0.51158674  0.34474160     0.22000
C287        C  0.07580367  0.50987915  0.38438628    -0.34300
C288        C  0.08507952  0.47023703  0.39023403     0.16100
O289        O  0.08340630  0.39901971  0.37260667    -0.26300
C290        C  0.10129016  0.41303011  0.41210441     0.05900
C291        C  0.10330517  0.45722555  0.42465436    -0.31200
O292        O  0.03952935  0.54262060  0.33399624    -0.23000
C293        C  0.02103970  0.52831740  0.29474037    -0.03000
C294        C  0.02442731  0.48771578  0.28009847    -0.17400
H295        H  0.04543475  0.40837374  0.29516231     0.20600
H296        H  0.08282040  0.53679106  0.40936802     0.19000
H297        H  0.11535173  0.47629499  0.45507514     0.18900
H298        H  0.00918596  0.46660724  0.25094647     0.14800
C299        C  0.86762399  0.40236115  0.15079929     0.30200
C300        C  0.82697291  0.36176310  0.12995920    -0.36100
C301        C  0.83853622  0.33130118  0.10504530     0.16200
C302        C  0.88661705  0.33985437  0.10124852     0.22000
C303        C  0.92721032  0.38050863  0.12185789    -0.34300
C304        C  0.91571800  0.41114718  0.14639436     0.16100
O305        O  0.86562388  0.43555707  0.17592971    -0.26300
C306        C  0.91321517  0.46626292  0.18750208     0.05900
C307        C  0.94587189  0.45267161  0.16994254    -0.31200
O308        O  0.88878093  0.30611283  0.07716351    -0.23000
C309        C  0.84148835  0.27556616  0.06487722    -0.03000
C310        C  0.80860210  0.28957649  0.08134461    -0.18400
H311        H  0.78901350  0.35437967  0.13300380     0.20600
H312        H  0.96512666  0.38769198  0.11905380     0.19000
H313        H  0.98598679  0.47009446  0.17406762     0.18900
H314        H  0.76834174  0.27116278  0.07733914     0.14800
C315        C  0.65763889  0.14134085  0.42823794     0.30200
C316        C  0.62908715  0.15436621  0.40167161    -0.36100
C317        C  0.59739570  0.11771144  0.37188796     0.16200
C318        C  0.59445747  0.07169931  0.36863302     0.22000
C319        C  0.62175276  0.05823351  0.39583509    -0.34300
C320        C  0.65320639  0.09467646  0.42537636     0.16100
O321        O  0.69361180  0.17148204  0.45495111    -0.26300
C322        C  0.71248253  0.14370602  0.46930885     0.05900
C323        C  0.68791982  0.09522537  0.45230326    -0.31200
O324        O  0.56736104  0.04533467  0.33580605    -0.23000
C325        C  0.55170428  0.07408559  0.31786214    -0.03000
C326        C  0.56877527  0.11952168  0.33914957    -0.17400
H327        H  0.63317210  0.19134014  0.40267852     0.20600
H328        H  0.62058039  0.02274228  0.39262453     0.19000
H329        H  0.69600410  0.06532925  0.45707731     0.18900
H330        H  0.56394777  0.15067070  0.32994267     0.14800
C331        C  0.76768766  0.16688659  0.98786189     0.03600
C332        C  0.78198722  0.20943794  0.01332077    -0.12600
C333        C  0.82189543  0.23216521  0.54079782     0.01100
C334        C  0.85316759  0.21168017  0.53665664    -0.11100
C335        C  0.83739141  0.16734975  0.51325899     0.03600
C336        C  0.79825068  0.14544215  0.98763915    -0.10500
H337        H  0.75883578  0.22633665  0.01350702     0.09100
H338        H  0.88954556  0.22993191  0.55207843     0.06700
H339        H  0.78846830  0.11338974  0.96751610     0.06500
C340        C  0.13161444  0.38249039  0.93331096     0.03600
C341        C  0.17386582  0.40651241  0.96029480    -0.12600
C342        C  0.17644133  0.38170920  0.48956047     0.01100
C343        C  0.14966818  0.32882619  0.48688842    -0.11100
C344        C  0.11436246  0.30063762  0.96070918     0.03600
C345        C  0.10144358  0.32924227  0.93404956    -0.10500
H346        H  0.19724170  0.44729235  0.96020917     0.09100
H347        H  0.16091562  0.30692974  0.50613788     0.06700
H348        H  0.06832666  0.31029284  0.91411380     0.06500
C349        C  0.30453831  0.19802884  0.55946830     0.03600
C350        C  0.32987302  0.24261995  0.53467144    -0.12600
C351        C  0.31026921  0.25427743  0.00488631     0.01100
C352        C  0.25837109  0.22110998  0.00135467    -0.11100
C353        C  0.22619579  0.17646250  0.52301130     0.03600
C354        C  0.25257764  0.16454864  0.55307275    -0.10500
H355        H  0.36982502  0.26800176  0.53892085     0.09100
H356        H  0.23776805  0.22856879  0.97723938     0.06700
H357        H  0.23291347  0.12927487  0.57084467     0.06500
C358        C  0.16183642  0.88872381  0.93344149     0.03600
C359        C  0.13800018  0.91715248  0.93753144    -0.12600
C360        C  0.10102848  0.90468519  0.96902664     0.01100
C361        C  0.07806935  0.86361611  0.49460153    -0.11100
C362        C  0.10169394  0.83509475  0.49435564     0.03600
C363        C  0.14866545  0.84798486  0.96209941    -0.10500
H364        H  0.14767884  0.94854924  0.91588956     0.09100
H365        H  0.04903726  0.85525902  0.51816833     0.06700
H366        H  0.16794059  0.82707819  0.96059916     0.06500
C367        C  0.83321535  0.69700471  0.99390380     0.03600
C368        C  0.85408073  0.74909257  0.98831169    -0.12600
C369        C  0.84430229  0.77710126  0.01797829     0.01100
C370        C  0.80558416  0.75111211  0.54886821    -0.11100
C371        C  0.78337383  0.69821869  0.55334154     0.03600
C372        C  0.80255989  0.67274160  0.02963159    -0.10500
H373        H  0.87792011  0.76784310  0.96069888     0.09100
H374        H  0.79940459  0.77248802  0.57283004     0.06700
H375        H  0.78638251  0.63237989  0.03364647     0.06500
C376        C  0.63135298  0.91645717  0.48110697     0.03600
C377        C  0.60832321  0.86172367  0.96753939    -0.12600
C378        C  0.63413945  0.84432852  0.94233740     0.01100
C379        C  0.68688206  0.86908312  0.94453915    -0.11100
C380        C  0.71391080  0.91255409  0.96913660     0.03600
C381        C  0.68391030  0.93999930  0.48276102    -0.10500
H382        H  0.56770843  0.84189002  0.96697928     0.09100
H383        H  0.70712947  0.85567897  0.92590369     0.06700
H384        H  0.70529370  0.97374856  0.50168484     0.06500
O385        O  0.95337581  0.10305539  0.95738605    -0.87900
C386        C  0.04130630  0.11698392  0.55063810     0.88100
Mg387      Mg  0.87529530  0.04607534  0.96082315     1.58100
O388        O  0.06269360  0.06140484  0.96221828    -0.87600
O389        O  0.01903009  0.12396907  0.91688333    -0.75000
C390        C  0.85944098  0.83202596  0.50687816     0.93200
O391        O  0.92418310  0.08306835  0.55565509    -0.74800
O392        O  0.83391655  0.85322633  0.51333701    -0.82300
Mg393      Mg  0.97725738  0.15033555  0.51201956     1.58000
C394        C  0.07381657  0.93224616  0.97313159     0.93100
O395        O  0.03756256  0.22324118  0.97475650    -0.80600
H396        H  0.07835677  0.06539915  0.89966389    -0.05900
C397        C  0.96946106  0.96231794  0.55046623     0.88000
O398        O  0.88752768  0.99280956  0.91815613    -0.75100
O399        O  0.03178878  0.12686910  0.51460518    -0.87800
O400        O  0.09726070  0.97803795  0.98588061    -0.80600
C401        C  0.17228778  0.14154826  0.51308935     0.93200
C402        C  0.08403532  0.24504097  0.96456663     0.93100
Mg403      Mg  0.96757457  0.93062151  0.96301930     1.58000
O404        O  0.90438888  0.85651448  0.49249553    -0.80600
O405        O  0.02180664  0.99689734  0.91991571    -0.74800
O406        O  0.14793547  0.16077669  0.49710978    -0.80600
O407        O  0.91796670  0.17380732  0.51174140    -0.82400
O408        O  0.79157190  0.91583433  0.98098643    -0.80700
C409        C  0.05590811  0.04228922  0.92643636     0.87500
O410        O  0.91140945  0.95207314  0.96033486    -0.87800
O411        O  0.98979103  0.97499317  0.51484405    -0.87900
O412        O  0.92400825  0.94999177  0.55614206    -0.75000
Mg413      Mg  0.08356471  0.13895397  0.96235056     1.58000
O414        O  0.15228145  0.09393660  0.51805256    -0.82400
H415        H  0.95194173  0.11001438  0.89368912    -0.06100
O416        O  0.88380368  0.01724024  0.51434816    -0.87600
H417        H  0.87066284  0.01369443  0.57741203    -0.05900
H418        H  0.90099999  0.93863385  0.89749591    -0.06100
C419        C  0.89152933  0.03681266  0.55005175     0.87500
C420        C  0.97374477  0.11272232  0.92170762     0.88100
C421        C  0.89969633  0.95974476  0.92442939     0.88100
H422        H  0.99140809  0.96317723  0.57778120    -0.06100
O423        O  0.05281148  0.08334244  0.55664298    -0.75100
Mg424      Mg  0.85871994  0.93750750  0.51277640     1.58000
H425        H  0.03835067  0.13654974  0.57803340    -0.06100
C426        C  0.87065670  0.14629057  0.50658376     0.93100
O427        O  0.79305739  0.98734656  0.96575299    -0.82300
C428        C  0.76931316  0.93979287  0.97126544     0.93200
O429        O  0.10715404  0.22104792  0.96197630    -0.82300
Mg430      Mg  0.06861554  0.03201799  0.51465152     1.58200
O431        O  0.85594480  0.09925023  0.99514034    -0.80600
O432        O  0.02661241  0.90787623  0.96659642    -0.82300
C433        C  0.93829291  0.55968072  0.78328410     0.86900
C434        C  0.96536788  0.60543640  0.75330486    -0.53300
C435        C  0.99494712  0.60193089  0.72274765     0.09800
C436        C  0.99596043  0.55238725  0.72630938     0.20800
C437        C  0.90992273  0.51418015  0.75324283    -0.54000
C438        C  0.94023144  0.51003581  0.72345907     0.09900
C439        C  0.98042792  0.55389262  0.80265980    -0.53600
C440        C  0.01032081  0.54945916  0.77324318     0.10500
H441        H  0.95962328  0.63713366  0.75545899     0.15000
H442        H  0.02120751  0.55011551  0.70249720     0.00800
H443        H  0.86985031  0.48739516  0.75582292     0.15300
H444        H  0.98468403  0.55064289  0.83690728     0.15100
C445        C  0.50712127  0.03164054  0.69861573     0.86900
C446        C  0.54335925  0.04831981  0.73632236    -0.53300
C447        C  0.53185580  0.06990088  0.76877692     0.09800
C448        C  0.48432322  0.07298226  0.76031968     0.20800
C449        C  0.45476747  0.99583244  0.71907717    -0.54000
C450        C  0.44279721  0.01796498  0.75147202     0.09900
C451        C  0.50559417  0.07858857  0.68493965    -0.53600
C452        C  0.49249222  0.09976728  0.71661921     0.10500
H453        H  0.57508375  0.04253664  0.73760529     0.15000
H454        H  0.47566687  0.09126625  0.78669383     0.00800
H455        H  0.42938119  0.95760838  0.70833460     0.15300
H456        H  0.50855301  0.09015889  0.65152421     0.15100
C457        C  0.42343309  0.50855343  0.70311779     0.86900
C458        C  0.40148502  0.46961260  0.73944848    -0.53300
C459        C  0.43411991  0.47811388  0.77209782     0.09800
C460        C  0.48693008  0.52464928  0.76448702     0.20800
C461        C  0.44344277  0.56000106  0.72551972    -0.54000
C462        C  0.47726903  0.56840327  0.75755167     0.09900
C463        C  0.47062955  0.50863649  0.68854889    -0.53600
C464        C  0.50440994  0.51786432  0.72027078     0.10500
H465        H  0.36271582  0.43864407  0.73969377     0.15000
H466        H  0.51356803  0.53050680  0.79066985     0.00800
H467        H  0.43298576  0.58742017  0.71654820     0.15300
H468        H  0.47905759  0.50725309  0.65493988     0.15100
C469        C  0.52621742  0.96794032  0.61229865     0.30200
C470        C  0.51569012  0.92839379  0.58404944    -0.36100
C471        C  0.55361405  0.93787187  0.55406428     0.16200
C472        C  0.59870309  0.98310013  0.55206280     0.22000
C473        C  0.60889494  0.02279689  0.57966689    -0.34300
C474        C  0.57123687  0.01320883  0.60963649     0.16100
O475        O  0.49712047  0.96703027  0.64390253    -0.26300
C476        C  0.52414241  0.01240508  0.66163643     0.05900
C477        C  0.57045127  0.04245282  0.64144311    -0.31200
O478        O  0.63066638  0.98231032  0.52468332    -0.23000
C479        C  0.60590157  0.93605637  0.50836372    -0.03000
C480        C  0.55743605  0.90689933  0.52525463    -0.17400
H481        H  0.48104524  0.89229296  0.58611203     0.20600
H482        H  0.64447716  0.05811314  0.57884529     0.19000
H483        H  0.59938445  0.08058989  0.64930081     0.18900
H484        H  0.53130850  0.85542747  0.02923486     0.14800
C485        C  0.59410379  0.74038327  0.87432492     0.30200
C486        C  0.59819367  0.70299875  0.85281480    -0.36100
C487        C  0.55828859  0.67193350  0.82572189     0.16200
C488        C  0.51721074  0.67733427  0.81964227     0.22000
C489        C  0.51310573  0.71486886  0.84129856    -0.34300
C490        C  0.55288776  0.74569698  0.86894129     0.16100
O491        O  0.62730976  0.77358790  0.90099387    -0.26300
C492        C  0.60715636  0.80051928  0.91347136     0.05900
C493        C  0.56065419  0.78469574  0.89455754    -0.31200
O494        O  0.48366892  0.64291490  0.79358318    -0.23000
C495        C  0.50353691  0.61497915  0.78327939    -0.03000
C496        C  0.55002711  0.63163824  0.80222172    -0.17400
H497        H  0.63009521  0.69813328  0.85723426     0.20600
H498        H  0.48090464  0.71930949  0.83731753     0.19000
H499        H  0.53672420  0.80044799  0.89816686     0.18900
H500        H  0.57406103  0.61587192  0.79973591     0.14800
C501        C  0.62929045  0.59689134  0.69021705     0.30200
C502        C  0.67061035  0.64509384  0.68083963    -0.36100
C503        C  0.70072006  0.64830741  0.64591990     0.16200
C504        C  0.69144659  0.60670837  0.62257021     0.22000
C505        C  0.65089471  0.55839618  0.63250046    -0.34300
C506        C  0.62012821  0.55535853  0.66670042     0.16100
O507        O  0.59153164  0.58713436  0.71594688    -0.26300
C508        C  0.55768604  0.53886742  0.70880948     0.05900
C509        C  0.57366685  0.51711910  0.67864926    -0.31200
O510        O  0.72048078  0.61886586  0.58842349    -0.23000
C511        C  0.74880599  0.66905435  0.58937729    -0.03000
C512        C  0.73831365  0.68938363  0.62487530    -0.17400
H513        H  0.67643574  0.67834891  0.69734821     0.20600
H514        H  0.64168537  0.52613847  0.61277562     0.19000
H515        H  0.55177498  0.48048009  0.66394364     0.18900
H516        H  0.75383361  0.72863263  0.63292576     0.14800
C517        C  0.84756054  0.63928478  0.90276382     0.30200
C518        C  0.84669674  0.62893229  0.85890242    -0.36100
C519        C  0.86732500  0.59939498  0.84741142     0.16200
C520        C  0.88828182  0.58213398  0.87696221     0.22000
C521        C  0.88755403  0.59097056  0.92098338    -0.34300
C522        C  0.86626199  0.61985557  0.93254402     0.16100
O523        O  0.83357434  0.66901442  0.92021359    -0.26300
C524        C  0.84250885  0.66779617  0.96183018     0.05900
C525        C  0.86252703  0.63755200  0.97141821    -0.31200
O526        O  0.91255342  0.56238700  0.85868124    -0.23000
C527        C  0.90659662  0.56623101  0.81674994    -0.03000
C528        C  0.87742901  0.58776799  0.80804806    -0.17400
H529        H  0.83292583  0.64466538  0.83518110     0.20600
H530        H  0.90463731  0.57833918  0.94437493     0.19000
H531        H  0.87437406  0.63122498  0.00230580     0.18900
H532        H  0.86980539  0.59857235  0.77713867     0.14800
C533        C  0.04848318  0.67480269  0.62800156     0.30200
C534        C  0.06736836  0.68586626  0.58556986    -0.36100
C535        C  0.07526740  0.73162266  0.56755807     0.16200
C536        C  0.06467631  0.76350942  0.58981218     0.22000
C537        C  0.04658430  0.75284649  0.63191332    -0.34300
C538        C  0.03927811  0.70787645  0.64979320     0.16100
O539        O  0.03597062  0.63346573  0.65096874    -0.26300
C540        C  0.01882682  0.64072073  0.68791264     0.05900
C541        C  0.02071825  0.68680883  0.68866529    -0.31200
O542        O  0.07266694  0.80306182  0.56708911    -0.23000
C543        C  0.08925913  0.79751499  0.52945907    -0.03000
C544        C  0.09197281  0.75367884  0.52786970    -0.17400
H545        H  0.07467204  0.66039068  0.56770614     0.20600
H546        H  0.03802354  0.77767899  0.64940085     0.19000
H547        H  0.00885642  0.70254797  0.71363879     0.18900
H548        H  0.10330906  0.73955914  0.50118439     0.14800
C549        C  0.26189759  0.95263792  0.86000283     0.30200
C550        C  0.29913475  0.99513687  0.83790311    -0.36100
C551        C  0.33272402  0.98805386  0.81330669     0.16200
C552        C  0.32992354  0.94216233  0.80985652     0.22000
C553        C  0.29230699  0.89924563  0.83210577    -0.34300
C554        C  0.25885737  0.90654782  0.85745087     0.16100
O555        O  0.22808157  0.95186058  0.88605983    -0.26300
C556        C  0.20274072  0.90471656  0.90113398     0.05900
C557        C  0.22031432  0.87466757  0.88434710    -0.31200
O558        O  0.36707852  0.94532372  0.78621122    -0.23000
C559        C  0.39400470  0.99407322  0.77492178    -0.03000
C560        C  0.37401383  0.02201779  0.79090023    -0.17400
H561        H  0.30250151  0.03172151  0.84059571     0.20600
H562        H  0.29007342  0.86310011  0.83067613     0.19000
H563        H  0.20699128  0.83530190  0.89112910     0.18900
H564        H  0.38850759  0.06210956  0.78755443     0.14800
C565        C  0.39679532  0.18971550  0.61838858     0.30200
C566        C  0.44524428  0.19880949  0.62627626    -0.36100
C567        C  0.44990214  0.17223285  0.66086526     0.16200
C568        C  0.40971782  0.13921855  0.68631046     0.22000
C569        C  0.36119307  0.13055389  0.67866777    -0.34300
C570        C  0.35639973  0.15667395  0.64357558     0.16100
O571        O  0.38375665  0.20832796  0.58615000    -0.26300
C572        C  0.33416286  0.18683531  0.59021289     0.05900
C573        C  0.31501529  0.15419897  0.62553610    -0.31200
O574        O  0.42128595  0.11325927  0.71296983    -0.23000
C575        C  0.46943336  0.12979765  0.70452569    -0.03000
C576        C  0.48919647  0.16689456  0.67260458    -0.17400
H577        H  0.47668315  0.22303610  0.60553622     0.20600
H578        H  0.32900098  0.10324221  0.69725725     0.19000
H579        H  0.27640334  0.13177557  0.63627605     0.18900
H580        H  0.52544724  0.18312147  0.65692164     0.14800
C581        C  0.41664958  0.41124657  0.86936680     0.30200
C582        C  0.42869963  0.38900035  0.90340949    -0.36100
C583        C  0.38855370  0.35593939  0.93052682     0.16200
C584        C  0.34028300  0.34613534  0.92462081     0.22000
C585        C  0.32843711  0.36871458  0.89120792    -0.34300
C586        C  0.36812222  0.40089669  0.86395540     0.16100
O587        O  0.44715134  0.44070052  0.83838164    -0.26300
C588        C  0.41730538  0.44847944  0.81269433     0.05900
C589        C  0.36792612  0.42483409  0.82740267    -0.31200
O590        O  0.30768855  0.31120944  0.95100100    -0.23000
C591        C  0.33487652  0.29790958  0.97459955    -0.03000
C592        C  0.38580300  0.32494097  0.96346166    -0.17400
H593        H  0.46620607  0.39544636  0.90746837     0.20600
H594        H  0.29033830  0.36001339  0.88571338     0.19000
H595        H  0.33609908  0.42463618  0.81292533     0.18900
H596        H  0.41579131  0.32022232  0.97574644     0.14800
C597        C  0.27199574  0.45674350  0.56342256     0.30200
C598        C  0.29811144  0.49550548  0.59348151    -0.36100
C599        C  0.33304634  0.49126142  0.61946095     0.16200
C600        C  0.34128436  0.45156369  0.61587039     0.22000
C601        C  0.31608448  0.41365268  0.58555451    -0.34300
C602        C  0.28148849  0.41789884  0.55985772     0.16100
O603        O  0.23512482  0.45067249  0.53793433    -0.26300
C604        C  0.22093917  0.40723987  0.51805044     0.05900
C605        C  0.24925244  0.38585499  0.53020766    -0.31200
O606        O  0.37331378  0.45311991  0.64427024    -0.23000
C607        C  0.38676682  0.49467356  0.66653855    -0.03000
C608        C  0.36293632  0.52024468  0.65243380    -0.17400
H609        H  0.29073251  0.52594849  0.59716786     0.20600
H610        H  0.32201818  0.38212379  0.58301277     0.19000
H611        H  0.25163487  0.34401963  0.02267364     0.18900
H612        H  0.36606052  0.55424122  0.66508853     0.14800
C613        C  0.09408030  0.43541586  0.85114092     0.30200
C614        C  0.07161535  0.43663925  0.81230865    -0.36100
C615        C  0.06856218  0.47996823  0.80454392     0.16200
C616        C  0.08601343  0.51906525  0.83332493     0.22000
C617        C  0.10977929  0.51852674  0.87142563    -0.34300
C618        C  0.11299191  0.47543353  0.87901356     0.16100
O619        O  0.09757370  0.39721060  0.86642850    -0.26300
C620        C  0.11957779  0.41326716  0.90440045     0.05900
C621        C  0.13007259  0.46180059  0.91371790    -0.31200
O622        O  0.07182364  0.55151213  0.82354178    -0.23000
C623        C  0.04580405  0.53384082  0.78749528    -0.03000
C624        C  0.04312194  0.48971259  0.77382584    -0.17400
H625        H  0.05538023  0.40495545  0.79070252     0.20600
H626        H  0.12228096  0.54833085  0.89473369     0.19000
H627        H  0.14637891  0.48331698  0.94253772     0.18900
H628        H  0.02012763  0.46496782  0.74843460     0.14800
C629        C  0.87266223  0.40438995  0.65649743     0.30200
C630        C  0.83006429  0.36243999  0.63890550    -0.36100
C631        C  0.83938818  0.33367365  0.60971292     0.16200
C632        C  0.88727909  0.34519393  0.59885744     0.22000
C633        C  0.92974736  0.38746081  0.61590677    -0.34300
C634        C  0.92042442  0.41625088  0.64487070     0.16100
O635        O  0.87293866  0.43556686  0.68547102    -0.26300
C636        C  0.92160919  0.46808988  0.69225815     0.05900
C637        C  0.95272291  0.45769909  0.66771140    -0.31200
O638        O  0.88745759  0.31171139  0.57297861    -0.23000
C639        C  0.83899849  0.27833769  0.56660110    -0.03000
C640        C  0.80734968  0.29033153  0.58856591    -0.18400
H641        H  0.79232816  0.35239769  0.64792248     0.20600
H642        H  0.96748851  0.39669355  0.60781100     0.19000
H643        H  0.99328579  0.47682445  0.66727826     0.18900
H644        H  0.76672827  0.26912658  0.59017571     0.14800
C645        C  0.66773468  0.14572821  0.91940441     0.30200
C646        C  0.63749736  0.15881775  0.89526866    -0.36100
C647        C  0.60663980  0.12390224  0.86401702     0.16200
C648        C  0.60611912  0.07953557  0.85710760     0.22000
C649        C  0.63527509  0.06602366  0.88175534    -0.34300
C650        C  0.66581792  0.10068976  0.91280072     0.16100
O651        O  0.70235252  0.17421851  0.94776131    -0.26300
C652        C  0.72289479  0.14700478  0.95942456     0.05900
C653        C  0.70084964  0.10054120  0.93886083    -0.31200
O654        O  0.57869615  0.05462494  0.82391228    -0.23000
C655        C  0.56042144  0.08263655  0.80936890    -0.03000
C656        C  0.57611212  0.12613257  0.83329530    -0.17400
H657        H  0.63934252  0.19450484  0.89941545     0.20600
H658        H  0.63571831  0.03174444  0.87586598     0.19000
H659        H  0.71017194  0.07130197  0.94126853     0.18900
H660        H  0.56883160  0.15637592  0.82719497     0.14800
loop_ 
_geom_bond_atom_site_label_1 
_geom_bond_atom_site_label_2 
_geom_bond_distance 
_geom_bond_site_symmetry_2 
_ccdc_geom_bond_type 
C1            C2   1.406       .  A
C1            C6   1.407       .  A
C1          C322   1.491       .  S
C2          C333   1.410       .  A
C2            H7   1.083       .  S
C3            C4   1.409       .  A
C3          C332   1.411       .  A
C3          C309   1.485       .  S
C4            C5   1.404       .  A
C4            H8   1.084       .  S
C5          C336   1.407   1_554  A
C5           C96   1.487       .  S
C6          C335   1.407       .  A
C6            H9   1.081       .  S
C10          C11   1.412       .  A
C10          C15   1.410       .  A
C10         C290   1.482       .  S
C11         C342   1.405       .  A
C11          H16   1.083       .  S
C12          C13   1.400       .  A
C12         C341   1.401       .  A
C12         C274   1.481   1_556  S
C13         C344   1.400       .  A
C13          H17   1.083   1_556  S
C14          C15   1.404       .  A
C14         C343   1.400       .  A
C14          C72   1.477       .  S
C15          H18   1.084       .  S
C19          C20   1.411       .  A
C19          C24   1.415       .  A
C19         C242   1.487       .  S
C20         C351   1.405       .  A
C20          H25   1.083       .  S
C21          C22   1.400       .  A
C21         C350   1.400       .  A
C21         C261   1.482       .  S
C22         C353   1.405       .  A
C22          H26   1.084       .  S
C23          C24   1.407       .  A
C23         C352   1.403       .  A
C23          C71   1.486       .  S
C24          H27   1.082       .  S
C28          C29   1.413       .  A
C28          C33   1.414       .  A
C28         C226   1.488       .  S
C29          C30   1.401       .  A
C29          H34   1.084       .  S
C30         C361   1.400       .  A
C30          C64   1.479       .  S
C31          C32   1.403       .  A
C31         C360   1.400       .  A
C31          H35   1.085   1_556  S
C32         C363   1.408       .  A
C32         C213   1.481   1_556  S
C33         C362   1.409       .  A
C33          H36   1.082       .  S
C37          C38   1.402       .  A
C37          C42   1.401       .  A
C37         C194   1.483       .  S
C38          C39   1.406       .  A
C38          H43   1.084       .  S
C39         C370   1.408       .  A
C39         C390   1.483       .  S
C40          C41   1.411       .  A
C40         C369   1.404       .  A
C40          H44   1.081       .  S
C41         C372   1.408       .  A
C41         C181   1.485       .  S
C42         C371   1.408       .  A
C42          H45   1.083       .  S
C46          C51   1.407       .  A
C46         C377   1.410       .  A
C46         C149   1.492   1_556  S
C47          C48   1.410       .  A
C47         C376   1.409       .  A
C47          H52   1.082       .  S
C48          C49   1.406       .  A
C48         C162   1.477       .  S
C49          C50   1.396       .  A
C49          H53   1.084       .  S
C50         C381   1.405       .  A
C50          C98   1.473       .  S
C51         C380   1.404       .  A
C51          H54   1.084   1_556  S
O55         Mg57   2.131       .  S
O55        Mg393   2.156       .  S
O55          C90   1.236       .  S
C56          H95   1.082       .  S
C56          O69   1.238       .  S
C56          O93   1.273       .  A
Mg57        O416   2.155       .  S
Mg57        O101   2.294       .  S
Mg57         O97   2.225   1_545  S
Mg57         O68   2.303   1_545  S
O58         Mg83   2.152       .  S
O58        Mg430   2.168       .  S
O58          C79   1.236       .  S
O59          C90   1.270   1_455  A
O59         Mg83   2.299       .  S
C60         C369   1.478       .  S
C60          O62   1.275       .  A
C60          O74   1.274   1_554  A
O61          C89   1.271       .  A
O61         Mg63   2.309       .  S
O62         Mg94   2.293       .  S
Mg63         O69   2.163   1_655  S
Mg63        O385   2.161   1_554  S
Mg63         O77   2.295       .  S
Mg63        O395   2.347   1_654  S
C64         O102   1.273       .  A
C64          O70   1.280       .  A
O65          C72   1.276       .  A
O65        Mg393   2.331   1_455  S
H66          C79   1.082       .  S
C67          H92   1.082       .  S
C67          O81   1.236       .  S
C67          O82   1.270       .  A
O68          C91   1.271       .  A
O69        Mg413   2.148   1_554  S
O70        Mg430   2.350   1_565  S
C71          O84   1.276       .  A
C71          O76   1.275       .  A
C72          O99   1.273       .  A
Mg73         O80   2.154       .  S
Mg73        O411   2.151       .  S
Mg73         O75   2.300   1_655  S
Mg73        O102   2.269   1_655  S
Mg73        O404   2.305       .  S
O74        Mg403   2.286       .  S
O75          C79   1.270   1_565  A
O76        Mg413   2.285   1_554  S
O77          C96   1.275       .  A
O78          C98   1.279       .  A
O78        Mg424   2.344       .  S
O80        Mg424   2.172       .  S
O80          C91   1.236       .  S
O81        Mg100   2.154   1_665  S
O81        Mg403   2.158   1_554  S
O82         Mg94   2.296       .  S
Mg83        O399   2.147       .  S
Mg83         O99   2.266       .  S
Mg83        O406   2.286       .  S
O84        Mg100   2.305       .  S
H85          C90   1.082       .  S
O86         Mg94   2.168   1_545  S
O86        Mg387   2.152   1_554  S
O86          C89   1.236       .  S
H87          C89   1.082       .  S
H88          C91   1.081       .  S
O93        Mg100   2.308       .  S
Mg94        O410   2.169   1_554  S
Mg94        O408   2.342   1_554  S
C96         O431   1.274   1_554  A
O97          C98   1.267       .  A
Mg100       O388   2.161   1_554  S
Mg100       O400   2.352   1_544  S
O101        C426   1.274       .  A
C103        C104   1.532       .  S
C103        C109   1.535       .  S
C103        C107   1.542       .  S
C103        C197   1.522       .  S
C104        H111   1.082       .  S
C104        C105   1.363       .  D
C105        C106   1.543       .  S
C105        C210   1.486   1_655  S
C106        C110   1.543       .  S
C106        C108   1.543       .  S
C106        H112   1.108   1_655  S
C107        H113   1.086       .  S
C107        C108   1.374       .  D
C108        C306   1.485       .  S
C109        H114   1.087       .  S
C109        C110   1.362       .  D
C110        C293   1.477   1_655  S
C115        C116   1.528       .  S
C115        C121   1.534       .  S
C115        C119   1.551   1_545  S
C115        C146   1.518   1_545  S
C116        H123   1.087       .  S
C116        C117   1.360       .  D
C117        C118   1.545       .  S
C117        C325   1.480       .  S
C118        C122   1.538       .  S
C118        C120   1.543       .  S
C118        H124   1.110       .  S
C119        H125   1.085       .  S
C119        C120   1.378   1_565  D
C120        C229   1.486   1_545  S
C121        H126   1.087       .  S
C121        C122   1.363       .  D
C122        C245   1.481       .  S
C127        C128   1.524       .  S
C127        C133   1.529       .  S
C127        C131   1.549       .  S
C127        C277   1.505       .  S
C128        H135   1.087       .  S
C128        C129   1.362       .  D
C129        C130   1.540       .  S
C129        C258   1.477       .  S
C130        C134   1.536       .  S
C130        C132   1.540       .  S
C130        H136   1.108       .  S
C131        H137   1.085       .  S
C131        C132   1.375       .  D
C132        C165   1.479       .  S
C133        H138   1.087       .  S
C133        C134   1.361       .  D
C134        C178   1.472       .  S
C139        C144   1.379       .  A
C139        C140   1.412       .  A
C139        O145   1.329       .  A
C140        C141   1.413       .  A
C140        H151   1.082       .  S
C141        C150   1.371       .  A
C141        C142   1.379       .  A
C142        C143   1.400   1_565  A
C142        O148   1.317       .  A
C143        C144   1.400   1_545  A
C143        H152   1.082       .  S
C144        C147   1.355   1_565  A
O145        C146   1.336       .  A
C146        C147   1.392   1_565  A
C147        H153   1.083       .  S
O148        C149   1.332       .  A
C149        C150   1.400       .  A
C150        H484   1.082       .  S
H154        C480   1.082       .  S
C155        C160   1.380       .  A
C155        C156   1.397       .  A
C155        O161   1.314       .  A
C156        C157   1.397       .  A
C156        H167   1.082       .  S
C157        C166   1.352       .  A
C157        C158   1.379       .  A
C158        C159   1.408       .  A
C158        O164   1.323       .  A
C159        C160   1.408       .  A
C159        H168   1.082       .  S
C160        C163   1.366       .  A
O161        C162   1.329       .  A
C162        C163   1.395       .  A
C163        H169   1.082       .  S
O164        C165   1.333       .  A
C165        C166   1.390       .  A
C166        H170   1.081       .  S
C171        C176   1.381       .  A
C171        C172   1.405       .  A
C171        O177   1.319       .  A
C172        C173   1.404       .  A
C172        H183   1.082       .  S
C173        C182   1.363       .  A
C173        C174   1.379       .  A
C174        C175   1.402       .  A
C174        O180   1.316       .  A
C175        C176   1.401       .  A
C175        H184   1.082       .  S
C176        C179   1.361       .  A
O177        C178   1.331       .  A
C178        C179   1.390       .  A
C179        H185   1.082       .  S
O180        C181   1.332       .  A
C181        C182   1.396       .  A
C182        H186   1.081       .  S
C187        C192   1.379       .  A
C187        C188   1.402       .  A
C187        O193   1.318       .  A
C188        C189   1.402       .  A
C188        H199   1.083       .  S
C189        C198   1.358       .  A
C189        C190   1.378       .  A
C190        C191   1.406       .  A
C190        O196   1.321       .  A
C191        C192   1.405       .  A
C191        H200   1.082       .  S
C192        C195   1.364       .  A
O193        C194   1.331       .  A
C194        C195   1.395       .  A
C195        H201   1.082       .  S
O196        C197   1.335       .  A
C197        C198   1.398       .  A
C198        H202   1.081       .  S
C203        C208   1.379       .  A
C203        C204   1.413       .  A
C203        O209   1.328       .  A
C204        C205   1.413       .  A
C204        H215   1.082       .  S
C205        C214   1.373       .  A
C205        C206   1.380       .  A
C206        C207   1.397       .  A
C206        O212   1.314       .  A
C207        C208   1.397       .  A
C207        H216   1.083       .  S
C208        C211   1.353       .  A
O209        C210   1.336       .  A
C210        C211   1.391       .  A
C211        H217   1.083       .  S
O212        C213   1.328       .  A
C213        C214   1.397       .  A
C214        H218   1.082   1_554  S
C219        C224   1.379       .  A
C219        C220   1.399       .  A
C219        O225   1.316       .  A
C220        C221   1.399       .  A
C220        H231   1.083   1_565  S
C221        C230   1.354   1_565  A
C221        C222   1.379       .  A
C222        C223   1.412       .  A
C222        O228   1.328       .  A
C223        C224   1.412       .  A
C223        H232   1.083       .  S
C224        C227   1.370       .  A
O225        C226   1.330       .  A
C226        C227   1.399       .  A
C227        H233   1.082       .  S
O228        C229   1.336       .  A
C229        C230   1.390   1_565  A
C230        H234   1.082       .  S
C235        C240   1.379       .  A
C235        C236   1.404       .  A
C235        O241   1.319       .  A
C236        C237   1.403       .  A
C236        H247   1.082       .  S
C237        C246   1.363       .  A
C237        C238   1.380       .  A
C238        C239   1.407       .  A
C238        O244   1.321       .  A
C239        C240   1.406       .  A
C239        H248   1.082       .  S
C240        C243   1.366       .  A
O241        C242   1.332       .  A
C242        C243   1.396       .  A
C243        H249   1.082       .  S
O244        C245   1.332       .  A
C245        C246   1.392       .  A
C246        H250   1.082       .  S
C251        C256   1.380       .  A
C251        C252   1.407       .  A
C251        O257   1.324       .  A
C252        C253   1.408       .  A
C252        H263   1.082       .  S
C253        C262   1.365       .  A
C253        C254   1.380       .  A
C254        C255   1.397       .  A
C254        O260   1.314       .  A
C255        C256   1.397       .  A
C255        H264   1.083       .  S
C256        C259   1.353       .  A
O257        C258   1.333       .  A
C258        C259   1.390       .  A
C259        H265   1.083       .  S
O260        C261   1.329       .  A
C261        C262   1.397       .  A
C262        H266   1.082       .  S
C267        C272   1.379       .  A
C267        C268   1.409       .  A
C267        O273   1.322       .  A
C268        C269   1.407       .  A
C268        H279   1.082       .  S
C269        C278   1.370       .  A
C269        C270   1.380       .  A
C270        C271   1.398       .  A
C270        O276   1.311       .  A
C271        C272   1.396       .  A
C271        H280   1.083       .  S
C272        C275   1.354       .  A
O273        C274   1.334       .  A
C274        C275   1.392       .  A
C275        H611   1.082       .  S
O276        C277   1.329       .  A
C277        C278   1.396       .  A
C278        H282   1.081       .  S
H281        C605   1.082       .  S
C283        C288   1.380       .  A
C283        C284   1.406       .  A
C283        O289   1.321       .  A
C284        C285   1.405       .  A
C284        H295   1.082       .  S
C285        C294   1.365       .  A
C285        C286   1.380       .  A
C286        C287   1.404       .  A
C286        O292   1.319       .  A
C287        C288   1.403       .  A
C287        H296   1.082       .  S
C288        C291   1.363       .  A
O289        C290   1.333       .  A
C290        C291   1.393       .  A
C291        H297   1.082       .  S
O292        C293   1.332       .  A
C293        C294   1.391       .  A
C294        H298   1.082       .  S
C299        C304   1.379       .  A
C299        C300   1.406       .  A
C299        O305   1.322       .  A
C300        C301   1.406       .  A
C300        H311   1.082       .  S
C301        C310   1.363       .  A
C301        C302   1.379       .  A
C302        C303   1.402       .  A
C302        O308   1.319       .  A
C303        C304   1.402       .  A
C303        H312   1.082       .  S
C304        C307   1.358       .  A
O305        C306   1.333       .  A
C306        C307   1.394       .  A
C307        H313   1.081       .  S
O308        C309   1.332       .  A
C309        C310   1.396       .  A
C310        H314   1.082       .  S
C315        C320   1.378       .  A
C315        C316   1.411       .  A
C315        O321   1.324       .  A
C316        C317   1.410       .  A
C316        H327   1.082       .  S
C317        C326   1.372       .  A
C317        C318   1.380       .  A
C318        C319   1.401       .  A
C318        O324   1.315       .  A
C319        C320   1.400       .  A
C319        H328   1.083       .  S
C320        C323   1.359       .  A
O321        C322   1.336       .  A
C322        C323   1.395       .  A
C323        H329   1.082       .  S
O324        C325   1.330       .  A
C325        C326   1.394       .  A
C326        H330   1.082       .  S
C331        C332   1.405   1_556  A
C331        C336   1.407       .  A
C331        C652   1.493       .  S
C332        H337   1.082       .  S
C333        C334   1.410       .  A
C333        C639   1.485       .  S
C334        C335   1.406       .  A
C334        H338   1.084       .  S
C335        C426   1.490       .  S
C336        H339   1.081       .  S
C340        C341   1.410       .  A
C340        C345   1.413       .  A
C340        C620   1.484       .  S
C341        H346   1.083       .  S
C342        C343   1.404       .  A
C342        C604   1.487       .  S
C343        H347   1.083       .  S
C344        C345   1.407       .  A
C344        C402   1.477       .  S
C345        H348   1.083       .  S
C349        C350   1.407       .  A
C349        C354   1.414       .  A
C349        C572   1.484       .  S
C350        H355   1.083       .  S
C351        C352   1.401       .  A
C351        C591   1.487   1_554  S
C352        H356   1.084   1_554  S
C353        C354   1.409       .  A
C353        C401   1.486       .  S
C354        H357   1.083       .  S
C358        C359   1.414       .  A
C358        C363   1.414       .  A
C358        C556   1.489       .  S
C359        C360   1.403       .  A
C359        H364   1.084       .  S
C360        C394   1.480       .  S
C361        C362   1.405       .  A
C361        H365   1.085       .  S
C362        C543   1.487       .  S
C363        H366   1.083       .  S
C367        C368   1.400       .  A
C367        C372   1.401   1_556  A
C367        C524   1.477       .  S
C368        C369   1.407   1_556  A
C368        H373   1.084       .  S
C370        C371   1.414       .  A
C370        H374   1.082       .  S
C371        C511   1.488       .  S
C372        H375   1.084       .  S
C376        C381   1.404       .  A
C376        C479   1.487       .  S
C377        C378   1.413       .  A
C377        H382   1.082       .  S
C378        C379   1.408       .  A
C378        C492   1.483       .  S
C379        C380   1.399       .  A
C379        H383   1.084       .  S
C380        C428   1.477       .  S
C381        H384   1.084       .  S
O385       Mg387   2.143       .  S
O385        C420   1.236       .  S
C386        H425   1.082       .  S
C386        O399   1.237       .  S
C386        O423   1.271       .  A
Mg387       O431   2.290       .  S
Mg387       O427   2.250   1_545  S
Mg387       O398   2.302   1_545  S
O388       Mg413   2.135       .  S
O388        C409   1.234       .  S
O389        C420   1.271   1_455  A
O389       Mg413   2.300       .  S
C390        O392   1.276       .  A
C390        O404   1.276       .  A
O391        C419   1.271       .  A
O391       Mg393   2.305       .  S
O392       Mg424   2.303       .  S
Mg393       O399   2.155   1_655  S
Mg393       O407   2.296       .  S
C394        O432   1.274       .  A
C394        O400   1.281       .  A
O395        C402   1.277       .  A
H396        C409   1.082       .  S
C397        H422   1.082       .  S
C397        O411   1.235       .  S
C397        O412   1.269       .  A
O398        C421   1.270       .  A
C401        O414   1.276       .  A
C401        O406   1.275       .  A
C402        O429   1.271       .  A
Mg403       O410   2.159       .  S
Mg403       O405   2.289   1_655  S
Mg403       O432   2.275   1_655  S
O405        C409   1.268   1_565  A
O407        C426   1.274       .  A
O408        C428   1.278       .  A
O410        C421   1.235       .  S
O411       Mg430   2.158   1_665  S
O412       Mg424   2.299       .  S
Mg413       O429   2.247       .  S
O414       Mg430   2.304       .  S
H415        C420   1.082       .  S
O416       Mg424   2.168   1_545  S
O416        C419   1.236       .  S
H417        C419   1.082       .  S
H418        C421   1.081       .  S
O423       Mg430   2.302       .  S
O427        C428   1.270       .  A
C433        C434   1.527       .  S
C433        C439   1.530       .  S
C433        C437   1.543       .  S
C433        C527   1.518       .  S
C434        H441   1.083       .  S
C434        C435   1.366       .  D
C435        C436   1.548       .  S
C435        C540   1.493   1_655  S
C436        C440   1.546   1_655  S
C436        C438   1.545       .  S
C436        H442   1.108   1_655  S
C437        H443   1.086       .  S
C437        C438   1.375       .  D
C438        C636   1.488       .  S
C439        H444   1.087       .  S
C439        C440   1.361   1_655  D
C440        C623   1.477       .  S
C445        C446   1.526       .  S
C445        C451   1.530       .  S
C445        C449   1.553   1_545  S
C445        C476   1.516       .  S
C446        H453   1.087       .  S
C446        C447   1.361       .  D
C447        C448   1.547       .  S
C447        C655   1.481       .  S
C448        C452   1.540       .  S
C448        C450   1.543       .  S
C448        H454   1.110       .  S
C449        H455   1.085       .  S
C449        C450   1.378   1_565  D
C450        C559   1.488   1_545  S
C451        H456   1.087       .  S
C451        C452   1.362       .  D
C452        C575   1.478       .  S
C457        C458   1.526       .  S
C457        C463   1.531       .  S
C457        C461   1.550       .  S
C457        C607   1.512       .  S
C458        H465   1.086       .  S
C458        C459   1.365       .  D
C459        C460   1.543       .  S
C459        C588   1.484       .  S
C460        C464   1.537       .  S
C460        C462   1.539       .  S
C460        H466   1.110       .  S
C461        H467   1.085       .  S
C461        C462   1.375       .  D
C462        C495   1.481       .  S
C463        H468   1.087       .  S
C463        C464   1.362       .  D
C464        C508   1.475       .  S
C469        C474   1.380   1_565  A
C469        C470   1.409       .  A
C469        O475   1.327       .  A
C470        C471   1.409       .  A
C470        H481   1.082       .  S
C471        C480   1.367       .  A
C471        C472   1.379       .  A
C472        C473   1.402   1_565  A
C472        O478   1.319       .  A
C473        C474   1.402       .  A
C473        H482   1.082       .  S
C474        C477   1.356       .  A
O475        C476   1.334   1_565  A
C476        C477   1.394       .  A
C477        H483   1.083       .  S
O478        C479   1.332       .  A
C479        C480   1.396       .  A
C485        C490   1.380       .  A
C485        C486   1.401       .  A
C485        O491   1.317       .  A
C486        C487   1.401       .  A
C486        H497   1.083       .  S
C487        C496   1.356       .  A
C487        C488   1.380       .  A
C488        C489   1.407       .  A
C488        O494   1.324       .  A
C489        C490   1.408       .  A
C489        H498   1.082       .  S
C490        C493   1.366       .  A
O491        C492   1.331       .  A
C492        C493   1.396       .  A
C493        H499   1.082       .  S
O494        C495   1.333       .  A
C495        C496   1.392       .  A
C496        H500   1.082       .  S
C501        C506   1.380       .  A
C501        C502   1.406       .  A
C501        O507   1.319       .  A
C502        C503   1.404       .  A
C502        H513   1.082       .  S
C503        C512   1.366       .  A
C503        C504   1.378       .  A
C504        C505   1.403       .  A
C504        O510   1.316       .  A
C505        C506   1.402       .  A
C505        H514   1.082       .  S
C506        C509   1.362       .  A
O507        C508   1.331       .  A
C508        C509   1.391       .  A
C509        H515   1.082       .  S
O510        C511   1.333       .  A
C511        C512   1.396       .  A
C512        H516   1.081       .  S
C517        C522   1.380       .  A
C517        C518   1.405       .  A
C517        O523   1.321       .  A
C518        C519   1.405       .  A
C518        H529   1.082       .  S
C519        C528   1.363       .  A
C519        C520   1.379       .  A
C520        C521   1.405       .  A
C520        O526   1.319       .  A
C521        C522   1.404       .  A
C521        H530   1.082       .  S
C522        C525   1.364       .  A
O523        C524   1.332       .  A
C524        C525   1.391       .  A
C525        H531   1.082   1_556  S
O526        C527   1.334       .  A
C527        C528   1.395       .  A
C528        H532   1.082       .  S
C533        C538   1.378       .  A
C533        C534   1.414       .  A
C533        O539   1.329       .  A
C534        C535   1.414       .  A
C534        H545   1.082       .  S
C535        C544   1.374       .  A
C535        C536   1.379       .  A
C536        C537   1.397       .  A
C536        O542   1.314       .  A
C537        C538   1.397       .  A
C537        H546   1.083       .  S
C538        C541   1.351       .  A
O539        C540   1.337       .  A
C540        C541   1.393       .  A
C541        H547   1.081       .  S
O542        C543   1.329       .  A
C543        C544   1.399       .  A
C544        H548   1.082       .  S
C549        C554   1.379       .  A
C549        C550   1.399       .  A
C549        O555   1.317       .  A
C550        C551   1.400       .  A
C550        H561   1.083   1_565  S
C551        C560   1.355   1_565  A
C551        C552   1.379       .  A
C552        C553   1.412       .  A
C552        O558   1.329       .  A
C553        C554   1.413       .  A
C553        H562   1.083       .  S
C554        C557   1.371       .  A
O555        C556   1.330       .  A
C556        C557   1.400       .  A
C557        H563   1.082       .  S
O558        C559   1.336       .  A
C559        C560   1.390   1_565  A
C560        H564   1.082       .  S
C565        C570   1.379       .  A
C565        C566   1.402       .  A
C565        O571   1.316       .  A
C566        C567   1.401       .  A
C566        H577   1.082       .  S
C567        C576   1.360       .  A
C567        C568   1.380       .  A
C568        C569   1.407       .  A
C568        O574   1.321       .  A
C569        C570   1.406       .  A
C569        H578   1.082       .  S
C570        C573   1.367       .  A
O571        C572   1.332       .  A
C572        C573   1.395       .  A
C573        H579   1.082       .  S
O574        C575   1.332       .  A
C575        C576   1.392       .  A
C576        H580   1.083       .  S
C581        C586   1.379       .  A
C581        C582   1.410       .  A
C581        O587   1.326       .  A
C582        C583   1.410       .  A
C582        H593   1.082       .  S
C583        C592   1.370       .  A
C583        C584   1.379       .  A
C584        C585   1.398       .  A
C584        O590   1.314       .  A
C585        C586   1.398       .  A
C585        H594   1.083       .  S
C586        C589   1.355       .  A
O587        C588   1.334       .  A
C588        C589   1.391       .  A
C589        H595   1.082       .  S
O590        C591   1.330       .  A
C591        C592   1.398       .  A
C592        H596   1.082       .  S
C597        C602   1.379       .  A
C597        C598   1.412       .  A
C597        O603   1.326       .  A
C598        C599   1.411       .  A
C598        H609   1.082       .  S
C599        C608   1.372       .  A
C599        C600   1.379       .  A
C600        C601   1.399       .  A
C600        O606   1.313       .  A
C601        C602   1.397       .  A
C601        H610   1.083       .  S
C602        C605   1.355       .  A
O603        C604   1.336       .  A
C604        C605   1.393       .  A
O606        C607   1.330       .  A
C607        C608   1.398       .  A
C608        H612   1.081       .  S
C613        C618   1.379       .  A
C613        C614   1.407       .  A
C613        O619   1.323       .  A
C614        C615   1.407       .  A
C614        H625   1.082       .  S
C615        C624   1.367       .  A
C615        C616   1.380       .  A
C616        C617   1.403       .  A
C616        O622   1.317       .  A
C617        C618   1.402       .  A
C617        H626   1.082       .  S
C618        C621   1.360       .  A
O619        C620   1.333       .  A
C620        C621   1.393       .  A
C621        H627   1.082       .  S
O622        C623   1.331       .  A
C623        C624   1.392       .  A
C624        H628   1.082       .  S
C629        C634   1.379       .  A
C629        C630   1.407       .  A
C629        O635   1.323       .  A
C630        C631   1.407       .  A
C630        H641   1.082       .  S
C631        C640   1.365       .  A
C631        C632   1.380       .  A
C632        C633   1.403       .  A
C632        O638   1.320       .  A
C633        C634   1.403       .  A
C633        H642   1.082       .  S
C634        C637   1.360       .  A
O635        C636   1.334       .  A
C636        C637   1.394       .  A
C637        H643   1.081       .  S
O638        C639   1.332       .  A
C639        C640   1.396       .  A
C640        H644   1.082       .  S
C645        C650   1.378       .  A
C645        C646   1.411       .  A
C645        O651   1.324       .  A
C646        C647   1.410       .  A
C646        H657   1.082       .  S
C647        C656   1.373       .  A
C647        C648   1.380       .  A
C648        C649   1.401       .  A
C648        O654   1.315       .  A
C649        C650   1.400       .  A
C649        H658   1.082       .  S
C650        C653   1.358       .  A
O651        C652   1.337       .  A
C652        C653   1.395       .  A
C653        H659   1.082       .  S
O654        C655   1.330       .  A
C655        C656   1.394       .  A
C656        H660   1.082       .  S
