geometry optimzed in LAMMPS
_audit_creation_date              2020-11-30 
_audit_creation_method            'lammps2cif' 
_symmetry_space_group_name_H-M    'P1' 
_symmetry_Int_Tables_number       1 
_symmetry_cell_setting            triclinic 
loop_ 
_symmetry_equiv_pos_as_xyz 
  x,y,z 
_cell_length_a                    49.57046926 
_cell_length_b                    49.19235427189713 
_cell_length_c                    37.07816446002577 
_cell_angle_alpha                 89.85780873309537 
_cell_angle_beta                  89.52170287108683 
_cell_angle_gamma                 119.5002917991967 
loop_ 
_atom_site_label 
_atom_site_type_symbol 
_atom_site_fract_x 
_atom_site_fract_y 
_atom_site_fract_z 
_atom_site_charge 
N1          N  0.82373119  0.26308157  0.04206557    -0.27300
N2          N  0.84815798  0.26101668  0.05251979    -0.35100
C3          C  0.86607475  0.28542216  0.07347880     0.01000
C4          C  0.85256773  0.30399029  0.07695970     0.07100
C5          C  0.82571789  0.28925389  0.05654516    -0.06000
H6          H  0.88722357  0.28904242  0.08605421     0.07700
H7          H  0.80868542  0.29663128  0.05316214     0.08900
Cu8        Cu  0.85674536  0.22479935  0.04134845     0.44200
Cu9        Cu  0.78852896  0.22907959  0.00933459     0.42000
Cu10       Cu  0.79933108  0.16200608  0.49223834     0.43900
N11         N  0.85961148  0.18513713  0.03037634    -0.34700
N12         N  0.83785863  0.16157807  0.51226939    -0.28900
C13         C  0.84593091  0.13939353  0.50832362    -0.05000
C14         C  0.87413801  0.14948033  0.02484878     0.07200
C15         C  0.88223641  0.17862498  0.03857636     0.01000
H16         H  0.83266086  0.11786729  0.49365384     0.08600
H17         H  0.90316997  0.19410875  0.05276505     0.07700
N18         N  0.76320150  0.16659479  0.47148991    -0.36100
N19         N  0.75862007  0.19060395  0.47708485    -0.28300
C20         C  0.73281631  0.18534568  0.45915629    -0.03500
C21         C  0.72096995  0.15680008  0.44163361     0.05100
C22         C  0.74084112  0.14574735  0.45017616     0.03200
H23         H  0.72329503  0.20092784  0.45902399     0.08300
H24         H  0.73906899  0.12380143  0.44158852     0.07100
N25         N  0.17980346  0.43748603  0.46762611    -0.27300
N26         N  0.15457753  0.41096318  0.45962993    -0.35100
C27         C  0.13594978  0.41708656  0.43920898     0.01000
C28         C  0.14994389  0.44890707  0.43338102     0.07100
C29         C  0.17774783  0.46126859  0.45193286    -0.06000
H30         H  0.11435702  0.39949365  0.42805803     0.07700
H31         H  0.19551493  0.48546706  0.45284911     0.08900
Cu32       Cu  0.14639270  0.36635250  0.47178339     0.44200
Cu33       Cu  0.21638027  0.43929176  0.99813132     0.42000
Cu34       Cu  0.20776918  0.36138292  0.01072841     0.43900
N35         N  0.14406279  0.32372167  0.48144478    -0.34700
N36         N  0.16742558  0.32200138  0.99585444    -0.28900
C37         C  0.15972276  0.29182697  0.99950891    -0.05000
C38         C  0.13004006  0.27361618  0.98652173     0.07200
C39         C  0.12078704  0.29462199  0.47524635     0.01000
H40         H  0.17448179  0.28372274  0.01112902     0.08600
H41         H  0.09877151  0.28914845  0.46355790     0.07700
N42         N  0.24384865  0.40197193  0.03101086    -0.36100
N43         N  0.24712326  0.43027342  0.02815901    -0.28300
C44         C  0.27155108  0.44997527  0.04842956    -0.03500
C45         C  0.28394356  0.43301677  0.06457731     0.05100
C46         C  0.26587476  0.40287861  0.05253207     0.03200
H47         H  0.27901747  0.47437583  0.05213911     0.08300
H48         H  0.26780326  0.38270028  0.06009243     0.07100
N49         N  0.41925504  0.24449301  0.50880813    -0.27300
N50         N  0.39227437  0.24094837  0.49824192    -0.35100
C51         C  0.39718505  0.26336618  0.47408808     0.01000
C52         C  0.42873040  0.28206827  0.46882250     0.07100
C53         C  0.44214889  0.26951555  0.49134328    -0.06000
H54         H  0.37899992  0.26512112  0.46008739     0.07700
H55         H  0.46651680  0.27716936  0.49366871     0.08900
Cu56       Cu  0.34935201  0.20400520  0.51308636     0.44200
Cu57       Cu  0.42261525  0.21289515  0.04433127     0.42000
Cu58       Cu  0.34742740  0.14462467  0.06950092     0.43900
N59         N  0.30857312  0.16359636  0.02624568    -0.34700
N60         N  0.30771796  0.14135321  0.04709156    -0.28900
C61         C  0.27823811  0.11784205  0.04976201    -0.05000
C62         C  0.25981744  0.12583960  0.02955409     0.06300
C63         C  0.27973357  0.15494173  0.51505871     0.01000
H64         H  0.27081069  0.09653304  0.06508954     0.08600
H65         H  0.27372934  0.16870871  0.49747389     0.07700
N66         N  0.39017618  0.15171291  0.08662772    -0.36100
N67         N  0.41738953  0.17602840  0.07793287    -0.28300
C68         C  0.43991304  0.17196353  0.09294033    -0.03500
C69         C  0.42609728  0.14380138  0.11172482     0.05100
C70         C  0.39465412  0.13171451  0.10709830     0.03200
H71         H  0.46445956  0.18787179  0.08971230     0.08300
H72         H  0.37632505  0.10961559  0.11730703     0.07100
N73         N  0.16173232  0.75796719  0.00655859    -0.27300
N74         N  0.13468280  0.75632774  0.00064699    -0.35100
C75         C  0.11299051  0.73456039  0.02251845     0.01000
C76         C  0.12674554  0.72196021  0.04416762     0.07100
C77         C  0.15778216  0.73742984  0.03316216    -0.06000
H78         H  0.08892319  0.72866414  0.02293438     0.07700
H79         H  0.17623756  0.73421715  0.04402419     0.08900
Cu80       Cu  0.12807305  0.78596846  0.96666669     0.44200
Cu81       Cu  0.20248590  0.78820470  0.97701462     0.42000
Cu82       Cu  0.19284321  0.84123663  0.41549398     0.43900
N83         N  0.12850204  0.82327793  0.94018065    -0.34700
N84         N  0.15264827  0.84406001  0.42131726    -0.28900
C85         C  0.14795114  0.86789769  0.41214107    -0.05000
C86         C  0.11945472  0.86174883  0.92602244     0.07200
C87         C  0.10778789  0.83326624  0.94356577     0.01000
H88         H  0.16492833  0.88911778  0.39872536     0.08600
H89         H  0.08690130  0.82187241  0.96002566     0.07700
N90         N  0.23315362  0.83838042  0.41889624    -0.36100
N91         N  0.23756881  0.81997664  0.44134317    -0.28300
C92         C  0.26726620  0.82615990  0.43747263    -0.03500
C93         C  0.28203644  0.84959100  0.41153417     0.05100
C94         C  0.25952120  0.85647878  0.40042896     0.03200
H95         H  0.27759592  0.81508699  0.45300957     0.08300
H96         H  0.26238532  0.87413027  0.38089926     0.07100
N97         N  0.82237338  0.58512283  0.48617089    -0.27300
N98         N  0.84781515  0.61235878  0.49022468    -0.35100
C99         C  0.87096146  0.61291389  0.47041778     0.01000
C100        C  0.85983286  0.58456717  0.45309700     0.07100
C101        C  0.82886029  0.56747459  0.46372232    -0.06000
H102        H  0.89392891  0.63294369  0.46774812     0.07700
H103        H  0.81226069  0.54437064  0.45512829     0.08900
Cu104      Cu  0.84898396  0.64937589  0.51805993     0.44200
Cu105      Cu  0.77974744  0.57523630  0.50970281     0.42000
Cu106      Cu  0.77528596  0.64629399  0.01877388     0.43900
N107        N  0.84354222  0.68795211  0.52633361    -0.34700
N108        N  0.81722315  0.68761409  0.02018271    -0.28900
C109        C  0.82252248  0.71717455  0.01949281    -0.05000
C110        C  0.85364062  0.73723384  0.02677708     0.07200
C111        C  0.86595470  0.71751198  0.53156339     0.01000
H112        H  0.80498530  0.72345182  0.01357007     0.08600
H113        H  0.88959345  0.72397898  0.53756797     0.07700
N114        N  0.74081692  0.60293208  0.03702685    -0.36100
N115        N  0.74260021  0.57698437  0.03521085    -0.28300
C116        C  0.71868588  0.55438634  0.05428867    -0.03500
C117        C  0.70115519  0.56681945  0.06858553     0.05100
C118        C  0.71590797  0.59756636  0.05708394     0.03200
H119        H  0.71496405  0.53101135  0.05856461     0.08300
H120        H  0.70988546  0.61524391  0.06438969     0.07100
N121        N  0.58564354  0.81443560  0.02435242    -0.27300
N122        N  0.60897709  0.84133838  0.01291904    -0.35100
C123        C  0.60816856  0.86489841  0.03047981     0.01000
C124        C  0.58321356  0.85249990  0.05441157     0.07100
C125        C  0.56945233  0.82033587  0.04967525    -0.06000
H126        H  0.62497251  0.88929771  0.02672234     0.07700
H127        H  0.54955436  0.80254822  0.06418398     0.08900
Cu128      Cu  0.64356876  0.84474919  0.97757757     0.44200
Cu129      Cu  0.57869883  0.77109665  0.50545870     0.42000
Cu130      Cu  0.65186682  0.77626442  0.48126434     0.43900
N131        N  0.68302916  0.84371114  0.95969118    -0.34700
N132        N  0.68779523  0.82023456  0.46732954    -0.28900
C133        C  0.71769821  0.82904118  0.46067495    -0.05000
C134        C  0.73262668  0.85935207  0.44677809     0.07200
C135        C  0.70933978  0.86742372  0.94596926     0.01000
H136        H  0.72788280  0.81450827  0.46653095     0.08600
H137        H  0.71119074  0.88911777  0.93685531     0.07700
N138        N  0.60948116  0.73583652  0.47543386    -0.36100
N139        N  0.58236498  0.73390705  0.48243751    -0.28300
C140        C  0.55974561  0.70637725  0.46974408    -0.03500
C141        C  0.57342829  0.69034475  0.45422700     0.05100
C142        C  0.60490301  0.70980224  0.45842026     0.03200
H143        H  0.53537427  0.69919605  0.47024956     0.08300
H144        H  0.62324133  0.70620716  0.44765031     0.07100
C145        C  0.01221017  0.03584348  0.98631206     0.02300
C146        C  0.97878221  0.02040834  0.98296587     0.02300
C147        C  0.96168884  0.98718076  0.97923381     0.02300
C148        C  0.97681790  0.96913241  0.98337176     0.02300
C149        C  0.00985387  0.98383745  0.98415600     0.02300
C150        C  0.02781363  0.01748272  0.98635778     0.02300
C151        C  0.02411775  0.51229154  0.27470288     0.86500
C152        C  0.00191289  0.48571181  0.25041981    -0.53800
C153        C  0.98157855  0.49122678  0.23136183     0.09400
C154        C  0.98510226  0.52390529  0.23921429     0.20400
C155        C  0.03944867  0.54127476  0.24979264    -0.54500
C156        C  0.01964522  0.54742623  0.23059227     0.09500
C157        C  0.00292150  0.51926556  0.29895953    -0.54000
C158        C  0.98215899  0.52497775  0.28100505     0.10100
H159        H  0.00241581  0.46394193  0.24838938     0.14600
H160        H  0.96884454  0.52908211  0.22432023     0.00300
H161        H  0.06397664  0.55721359  0.24857463     0.14900
H162        H  0.00427328  0.51972432  0.32819584     0.14700
C163        C  0.52384242  0.97685258  0.22995823     0.86500
C164        C  0.49580563  0.95567388  0.25418844    -0.53800
C165        C  0.48761561  0.97063787  0.27911878     0.09400
C166        C  0.50812007  0.00666325  0.27720968     0.20400
C167        C  0.51303718  0.99866576  0.21304647    -0.54500
C168        C  0.50547648  0.01500228  0.23742620     0.09500
C169        C  0.54986033  0.99813826  0.25559829    -0.54000
C170        C  0.54221008  0.01370310  0.28077601     0.10100
H171        H  0.48152632  0.93075837  0.24996554     0.14600
H172        H  0.50124471  0.01864886  0.29751248     0.00300
H173        H  0.51089149  0.00073102  0.18421584     0.14900
H174        H  0.57304860  0.00124623  0.25309115     0.14700
C175        C  0.45920529  0.47418617  0.23698059     0.86500
C176        C  0.45425122  0.44574837  0.25949593    -0.53800
C177        C  0.47857918  0.44998275  0.28063422     0.09400
C178        C  0.50738191  0.48284767  0.27481116     0.20400
C179        C  0.47140934  0.50180495  0.26390269    -0.54500
C180        C  0.49580624  0.50581670  0.28481925     0.09500
C181        C  0.48811389  0.48275592  0.21416599    -0.54000
C182        C  0.51329075  0.48701983  0.23302176     0.10100
H183        H  0.43268703  0.42376755  0.25852874     0.14600
H184        H  0.52745450  0.48665284  0.29098616     0.00300
H185        H  0.46363159  0.51877440  0.26492869     0.14900
H186        H  0.48897002  0.48613846  0.18511392     0.14700
C187        C  0.76670432  0.87939044  0.43883901     0.01300
C188        C  0.78442722  0.86565508  0.42626071     0.04200
C189        C  0.81710072  0.88259708  0.42740206    -0.11900
C190        C  0.83241020  0.91450674  0.43607056     0.23500
C191        C  0.81496025  0.92964036  0.94146069    -0.12500
C192        C  0.78259288  0.91201198  0.94609517     0.04900
C193        C  0.86569614  0.93117142  0.44638305     0.27300
C194        C  0.87293973  0.93865795  0.98290148    -0.13200
C195        C  0.90341532  0.95986022  0.99307909     0.05400
C196        C  0.92815327  0.97001089  0.96781752    -0.09100
C197        C  0.92089827  0.96021196  0.43136607     0.06200
C198        C  0.88972508  0.94247811  0.42046512    -0.13500
Br199      Br  0.83626110  0.97466248  0.94566414    -0.05600
Br200      Br  0.76488326  0.82422690  0.40595871     0.00100
Br201      Br  0.90900419  0.97644036  0.04075861     0.00500
Br202      Br  0.87974698  0.93535287  0.36994405    -0.03900
Br203      Br  0.76265222  0.93311255  0.96820516     0.00600
Br204      Br  0.84075744  0.86164151  0.41930063    -0.03200
Br205      Br  0.84053065  0.91976368  0.01929134    -0.04100
Br206      Br  0.95314811  0.97502071  0.39473162    -0.00100
C207        C  0.57410610  0.87009821  0.08021954     0.01300
C208        C  0.54392333  0.86639131  0.07969640     0.04200
C209        C  0.53572673  0.88382541  0.10323916    -0.11900
C210        C  0.55750334  0.90519467  0.12759596     0.23500
C211        C  0.58754526  0.90876193  0.12841265    -0.12500
C212        C  0.59579199  0.89130029  0.10503316     0.04900
C213        C  0.54874486  0.92333119  0.15313587     0.27300
C214        C  0.55703523  0.95452404  0.14553830    -0.13200
C215        C  0.55069630  0.97232972  0.17074295     0.05400
C216        C  0.53412357  0.95867356  0.20353745    -0.09100
C217        C  0.53007325  0.92855967  0.21272666     0.06200
C218        C  0.53530432  0.91050691  0.18685961    -0.13500
Br219      Br  0.61736125  0.93752104  0.16212792    -0.05600
Br220      Br  0.51392732  0.83842143  0.04567107     0.00100
Br221      Br  0.57051507  0.01658207  0.16200561     0.00500
Br222      Br  0.52501072  0.86804365  0.19793929    -0.03900
Br223      Br  0.63642469  0.89533042  0.10883277     0.00600
Br224      Br  0.49458838  0.87868326  0.10216273    -0.03200
Br225      Br  0.57811714  0.97305783  0.10049412    -0.04100
Br226      Br  0.52459271  0.91377032  0.26215869    -0.00100
C227        C  0.55888441  0.66123200  0.43253114     0.01300
C228        C  0.54633299  0.66084351  0.39834336     0.04200
C229        C  0.53608356  0.63447341  0.37594957    -0.11900
C230        C  0.53821013  0.60827176  0.38755085     0.23500
C231        C  0.54971727  0.60819318  0.42216674    -0.12500
C232        C  0.56018877  0.63462281  0.44446634     0.04900
C233        C  0.52820330  0.58076410  0.36338945     0.27300
C234        C  0.49709667  0.55704087  0.36331279    -0.13200
C235        C  0.48727746  0.53168214  0.33953156     0.05400
C236        C  0.50829075  0.52983636  0.31467529    -0.09100
C237        C  0.54032201  0.55202945  0.31803692     0.06200
C238        C  0.54990988  0.57783124  0.34138953    -0.13500
Br239      Br  0.55115009  0.57173443  0.43880620    -0.05600
Br240      Br  0.54468422  0.69704353  0.38120380     0.00100
Br241      Br  0.44553381  0.49791818  0.34474641     0.00500
Br242      Br  0.59296456  0.60979868  0.34320860    -0.03900
Br243      Br  0.57604882  0.63424050  0.49166425     0.00600
Br244      Br  0.51965471  0.63431113  0.32890650    -0.03200
Br245      Br  0.46796350  0.55940823  0.39634098    -0.04100
Br246      Br  0.57217302  0.54738949  0.29345724    -0.00100
C247        C  0.87049748  0.77214659  0.02671474     0.01300
C248        C  0.90125565  0.78926368  0.51295457     0.04200
C249        C  0.91714214  0.82200456  0.51397956    -0.11900
C250        C  0.90089481  0.83817091  0.02138741     0.23500
C251        C  0.87001251  0.82146996  0.03392370    -0.12500
C252        C  0.85583283  0.78890829  0.03946039     0.04900
C253        C  0.91584344  0.87190931  0.01171888     0.27300
C254        C  0.92623042  0.89508948  0.03842505    -0.13200
C255        C  0.94533765  0.92673624  0.02871637     0.05400
C256        C  0.95675738  0.93513423  0.99278138    -0.09100
C257        C  0.94667676  0.91141149  0.46651040     0.06200
C258        C  0.92433312  0.88063254  0.47543536    -0.13500
Br259      Br  0.84646274  0.84269047  0.04146408    -0.05600
Br260      Br  0.92104367  0.76962414  0.48706945     0.00100
Br261      Br  0.96122662  0.95755828  0.06658491     0.00500
Br262      Br  0.90667558  0.84947518  0.43801563    -0.03900
Br263      Br  0.81740163  0.76844591  0.06658883     0.00600
Br264      Br  0.96111727  0.84492705  0.50307078    -0.03200
Br265      Br  0.91696675  0.88336712  0.08865724    -0.04100
Br266      Br  0.96594993  0.91839571  0.41986117    -0.00100
C267        C  0.67436439  0.55203730  0.09400308     0.01300
C268        C  0.67913825  0.55035359  0.13123322     0.04200
C269        C  0.65386417  0.53882409  0.15573660    -0.11900
C270        C  0.62366901  0.52887595  0.14316141     0.23500
C271        C  0.61884862  0.52995675  0.10583798    -0.12500
C272        C  0.64411822  0.54169006  0.08141045     0.04900
C273        C  0.59702368  0.51839472  0.16900013     0.27300
C274        C  0.57825462  0.48644834  0.17742735    -0.13200
C275        C  0.55090759  0.47616087  0.19823704     0.05400
C276        C  0.54338099  0.49797751  0.21336521    -0.09100
C277        C  0.56126249  0.52976331  0.20299772     0.06200
C278        C  0.58835872  0.53999101  0.18178791    -0.13500
Br279      Br  0.57751463  0.51577718  0.08832835    -0.05600
Br280      Br  0.72053566  0.56512613  0.14878470     0.00100
Br281      Br  0.52103552  0.43218571  0.19973525     0.00500
Br282      Br  0.61293068  0.58350153  0.16850173    -0.03900
Br283      Br  0.63742751  0.54403032  0.03059581     0.00600
Br284      Br  0.66050095  0.53720815  0.20666615    -0.03200
Br285      Br  0.58936407  0.45667116  0.15877840    -0.04100
Br286      Br  0.54620903  0.55858963  0.21281074    -0.00100
C287        C  0.95993222  0.53191782  0.30154700     0.01300
C288        C  0.93811766  0.50950143  0.32599449     0.04200
C289        C  0.92135962  0.51767379  0.35046516    -0.11900
C290        C  0.92637106  0.54841292  0.35120378     0.23500
C291        C  0.94703996  0.57049227  0.32603107    -0.12500
C292        C  0.96298919  0.56205937  0.30064462     0.04900
C293        C  0.90917956  0.55733851  0.37760798     0.27300
C294        C  0.88201049  0.55749416  0.36705232    -0.13200
C295        C  0.86624861  0.56694203  0.39141235     0.05400
C296        C  0.87700628  0.57546313  0.42702472    -0.09100
C297        C  0.90447197  0.57561611  0.43745409     0.06200
C298        C  0.92037247  0.56645053  0.41288232    -0.13500
Br299      Br  0.95419051  0.61276686  0.32737366    -0.05600
Br300      Br  0.92954995  0.46689464  0.32502887     0.00100
Br301      Br  0.83139854  0.57061787  0.37477580     0.00500
Br302      Br  0.95751380  0.56616840  0.42746976    -0.03900
Br303      Br  0.98849276  0.59212981  0.26471664     0.00600
Br304      Br  0.89155450  0.48686578  0.38342565    -0.03200
Br305      Br  0.86644478  0.54461715  0.31896126    -0.04100
Br306      Br  0.92029400  0.58789142  0.48559288    -0.00100
C307        C  0.10693935  0.88344302  0.92898236     0.01300
C308        C  0.12214515  0.91049791  0.95035029     0.04200
C309        C  0.10814688  0.92892643  0.95693460    -0.11900
C310        C  0.07898577  0.92048850  0.94214572     0.23500
C311        C  0.06416921  0.89393405  0.42004818    -0.12500
C312        C  0.07816484  0.87551790  0.41340635     0.04900
C313        C  0.06201895  0.93694469  0.95351212     0.27300
C314        C  0.04602790  0.92902837  0.98660854    -0.13200
C315        C  0.02826676  0.94296101  0.99728655     0.05400
C316        C  0.02615814  0.96535994  0.97432645    -0.09100
C317        C  0.04068658  0.97096181  0.43980413     0.06200
C318        C  0.05966210  0.95819183  0.43032877    -0.13500
Br319      Br  0.02360642  0.88157311  0.40106001    -0.05600
Br320      Br  0.16081703  0.92095595  0.97338986     0.00100
Br321      Br  0.00701931  0.92811073  0.04264937     0.00500
Br322      Br  0.08239002  0.96947243  0.38520540    -0.03900
Br323      Br  0.05764521  0.83905964  0.38340304     0.00600
Br324      Br  0.12750796  0.96416882  0.98887298    -0.03200
Br325      Br  0.04862662  0.89827098  0.01718466    -0.04100
Br326      Br  0.03065733  0.99163627  0.40246904    -0.00100
C327        C  0.03187784  0.57465108  0.20439580     0.01300
C328        C  0.02236335  0.57038163  0.16785504     0.04200
C329        C  0.03698261  0.59510554  0.14254321    -0.11900
C330        C  0.06200017  0.62408198  0.15283328     0.23500
C331        C  0.07120801  0.62878299  0.18915240    -0.12500
C332        C  0.05585142  0.60466170  0.21494118     0.04900
C333        C  0.07896121  0.64943428  0.12534674     0.27300
C334        C  0.10011845  0.64772509  0.10103403    -0.13200
C335        C  0.11527634  0.67096475  0.07420633     0.05400
C336        C  0.11109650  0.69742691  0.07288653    -0.09100
C337        C  0.09078120  0.69965881  0.09840844     0.06200
C338        C  0.07405262  0.67529172  0.12354349    -0.13500
Br339      Br  0.10590750  0.66823245  0.20327991    -0.05600
Br340      Br  0.99098237  0.53045932  0.15060887     0.00100
Br341      Br  0.13977821  0.66483755  0.03778950     0.00500
Br342      Br  0.04386723  0.67697226  0.15537663    -0.03900
Br343      Br  0.06760631  0.61393495  0.26498269     0.00600
Br344      Br  0.02328594  0.58923976  0.09308770    -0.03200
Br345      Br  0.10837494  0.61334667  0.10468348    -0.04100
Br346      Br  0.08694944  0.73682698  0.10108262    -0.00100
C347        C  0.45868482  0.95306283  0.30166766     0.01300
C348        C  0.46032177  0.95051334  0.33945539     0.04200
C349        C  0.43308788  0.93221987  0.36018976    -0.11900
C350        C  0.40374123  0.91771885  0.34367339     0.23500
C351        C  0.40204489  0.92070716  0.30603664    -0.12500
C352        C  0.42930920  0.93710527  0.28498604     0.04900
C353        C  0.37448029  0.89970814  0.36550327     0.27300
C354        C  0.35773693  0.86671701  0.36443869    -0.13200
C355        C  0.32791493  0.85000432  0.38053096     0.05400
C356        C  0.31512823  0.86606253  0.39923551    -0.09100
C357        C  0.33307490  0.89882238  0.40286663     0.06200
C358        C  0.36211145  0.91561364  0.38522473    -0.13500
Br359      Br  0.36202044  0.90291153  0.28337129    -0.05600
Br360      Br  0.50000531  0.97083903  0.36272264     0.00100
Br361      Br  0.30377088  0.80539188  0.37455637     0.00500
Br362      Br  0.38412074  0.96065871  0.38626821    -0.03900
Br363      Br  0.42585387  0.93814206  0.23312579     0.00600
Br364      Br  0.43589158  0.92612027  0.41112820    -0.03200
Br365      Br  0.37541062  0.84457827  0.33978339    -0.04100
Br366      Br  0.31820109  0.92077435  0.43290538    -0.00100
C367        C  0.06277978  0.03254677  0.99167581     0.01300
C368        C  0.07436920  0.02428457  0.02241101     0.04200
C369        C  0.10644383  0.03647283  0.02719271    -0.11900
C370        C  0.12779675  0.05998813  0.00405690     0.23500
C371        C  0.11698776  0.06965725  0.47456827    -0.12500
C372        C  0.08501812  0.05495166  0.46716897     0.04900
C373        C  0.16161017  0.07571035  0.01164209     0.27300
C374        C  0.17398537  0.09785773  0.03956696    -0.13200
C375        C  0.20605340  0.11349653  0.04612555     0.05400
C376        C  0.22598091  0.10754611  0.02442726    -0.09100
C377        C  0.21373094  0.08548914  0.99652152     0.06200
C378        C  0.18161556  0.06958745  0.99010875    -0.13500
Br379      Br  0.14656171  0.10381858  0.44451133    -0.05600
Br380      Br  0.04762397  0.00102439  0.06214928     0.00100
Br381      Br  0.22289190  0.14337235  0.08467567     0.00500
Br382      Br  0.16521669  0.04046751  0.95078429    -0.03900
Br383      Br  0.07419474  0.06579121  0.42210427     0.00600
Br384      Br  0.12145565  0.02158593  0.06623682    -0.03200
Br385      Br  0.14718320  0.10787429  0.06776340    -0.04100
Br386      Br  0.24115489  0.07775194  0.96647382    -0.00100
C387        C  0.44112538  0.12831424  0.13081304     0.01300
C388        C  0.45525642  0.13944311  0.16449160     0.04200
C389        C  0.46721019  0.12307511  0.18392294    -0.11900
C390        C  0.46482167  0.09533736  0.16992948     0.23500
C391        C  0.45100076  0.08442379  0.13609799    -0.12500
C392        C  0.43938206  0.10094518  0.11650559     0.04900
C393        C  0.47649455  0.07730951  0.19072068     0.27300
C394        C  0.50657547  0.08226587  0.18432210    -0.13200
C395        C  0.51670369  0.06345575  0.20177175     0.05400
C396        C  0.49655635  0.03877245  0.22517216    -0.09100
C397        C  0.46767231  0.03640505  0.23457283     0.06200
C398        C  0.45737178  0.05491195  0.21654965    -0.13500
Br399      Br  0.44746647  0.04634826  0.11703717    -0.05600
Br400      Br  0.45686894  0.17626667  0.18477563     0.00100
Br401      Br  0.55954725  0.07435370  0.19677160     0.00500
Br402      Br  0.41647587  0.04904067  0.22617819    -0.03900
Br403      Br  0.42149796  0.08631083  0.06966833     0.00600
Br404      Br  0.48636481  0.13818224  0.23005752    -0.03200
Br405      Br  0.53370209  0.11471766  0.15105893    -0.04100
Br406      Br  0.44233620  0.00965663  0.27311438    -0.00100
C407        C  0.44371971  0.30728783  0.44124138     0.01300
C408        C  0.43838517  0.29987202  0.40428879     0.04200
C409        C  0.44811406  0.32380046  0.37812766    -0.11900
C410        C  0.46296683  0.35535788  0.38866442     0.23500
C411        C  0.46979845  0.36286826  0.42539517    -0.12500
C412        C  0.46040871  0.33889883  0.45159545     0.04900
C413        C  0.46784024  0.38012448  0.36178705     0.27300
C414        C  0.49577703  0.39646417  0.34223705    -0.13200
C415        C  0.49958441  0.41904163  0.31588032     0.05400
C416        C  0.47538653  0.42613549  0.30914312    -0.09100
C417        C  0.44756735  0.40991755  0.33032294     0.06200
C418        C  0.44380118  0.38677014  0.35557882    -0.13500
Br419      Br  0.49036341  0.40603573  0.43984869    -0.05600
Br420      Br  0.41722924  0.25675741  0.38945211     0.00100
Br421      Br  0.53799120  0.43828590  0.28895909     0.00500
Br422      Br  0.40518744  0.36346538  0.38218211    -0.03900
Br423      Br  0.46855158  0.34935094  0.50188563     0.00600
Br424      Br  0.43967000  0.31343509  0.32782944    -0.03200
Br425      Br  0.52867044  0.38716075  0.35165332    -0.04100
Br426      Br  0.41418784  0.41951708  0.32808191    -0.00100
C427        C  0.03036963  0.07155680  0.98674384     0.01300
C428        C  0.02823663  0.08864183  0.45683228     0.04200
C429        C  0.04271857  0.12152084  0.45732357    -0.11900
C430        C  0.06139376  0.13828173  0.98640146     0.23500
C431        C  0.06524107  0.12214424  0.01529020    -0.12500
C432        C  0.04927694  0.08919594  0.01620831     0.04900
C433        C  0.07850167  0.17305750  0.98582354     0.27300
C434        C  0.10653097  0.18920782  0.46617822    -0.13200
C435        C  0.12322715  0.22207565  0.46611806     0.05400
C436        C  0.11198384  0.23904956  0.98576577    -0.09100
C437        C  0.08402925  0.22285848  0.00569059     0.06200
C438        C  0.06755876  0.18995827  0.00606090    -0.13500
Br439      Br  0.09332054  0.14596441  0.05354788    -0.05600
Br440      Br  0.00944700  0.06819191  0.41234831     0.00100
Br441      Br  0.16108677  0.24371491  0.43814435     0.00500
Br442      Br  0.03093459  0.16798731  0.03592052    -0.03900
Br443      Br  0.05414363  0.07070731  0.05937516     0.00600
Br444      Br  0.03800048  0.14410764  0.41739929    -0.03200
Br445      Br  0.12251201  0.16608317  0.44029869    -0.04100
Br446      Br  0.06902621  0.24557309  0.03416596    -0.00100
C447        C  0.43052681  0.46704731  0.21346280     0.01300
C448        C  0.42259530  0.44599677  0.18379679     0.04200
C449        C  0.39934529  0.44224501  0.15928155    -0.11900
C450        C  0.38386213  0.45950505  0.16334236     0.23500
C451        C  0.38989549  0.47864957  0.19356561    -0.12500
C452        C  0.41090750  0.48022378  0.21997698     0.04900
C453        C  0.35819567  0.45432326  0.13862920     0.27300
C454        C  0.36426785  0.47172679  0.10638993    -0.13200
C455        C  0.33983999  0.46600523  0.08275966     0.05400
C456        C  0.30913063  0.44299050  0.09148658    -0.09100
C457        C  0.30299493  0.42683023  0.12479903     0.06200
C458        C  0.32745616  0.43208574  0.14789987    -0.13500
Br459      Br  0.36770862  0.50152920  0.19956835    -0.05600
Br460      Br  0.44117625  0.41971667  0.17725009     0.00100
Br461      Br  0.34884235  0.48864022  0.03772232     0.00500
Br462      Br  0.31902688  0.40825008  0.19209931    -0.03900
Br463      Br  0.40369081  0.49123633  0.26749276     0.00600
Br464      Br  0.38778095  0.41271804  0.12026207    -0.03200
Br465      Br  0.40626342  0.50289828  0.09448197    -0.04100
Br466      Br  0.26086813  0.39824079  0.13980372    -0.00100
C467        C  0.13826932  0.46472609  0.40891600     0.01300
C468        C  0.13233075  0.45546996  0.37247408     0.04200
C469        C  0.11638801  0.46611112  0.35047860    -0.11900
C470        C  0.10631314  0.48622340  0.36459538     0.23500
C471        C  0.11370919  0.49692528  0.40032655    -0.12500
C472        C  0.12978405  0.48632242  0.42242576     0.04900
C473        C  0.08578590  0.49373883  0.34255755     0.27300
C474        C  0.09820169  0.51562733  0.31425665    -0.13200
C475        C  0.07846991  0.51794996  0.28880860     0.05400
C476        C  0.04596425  0.50380621  0.29594071    -0.09100
C477        C  0.03365312  0.48035910  0.32347824     0.06200
C478        C  0.05345437  0.47527984  0.34620788    -0.13500
Br479      Br  0.10046007  0.52499895  0.41921964    -0.05600
Br480      Br  0.14609045  0.42814115  0.35231287     0.00100
Br481      Br  0.09547993  0.52910122  0.24042597     0.00500
Br482      Br  0.03642369  0.44208922  0.38189580    -0.03900
Br483      Br  0.13831193  0.49985275  0.47179789     0.00600
Br484      Br  0.10693222  0.45185599  0.30129275    -0.03200
Br485      Br  0.14258428  0.54128232  0.30918411    -0.04100
Br486      Br  0.98981757  0.45178518  0.32811817    -0.00100
C487        C  0.89252143  0.13330861  0.02457479     0.01300
C488        C  0.88035984  0.10355829  0.04084206     0.04200
C489        C  0.89594850  0.08637257  0.03694291    -0.11900
C490        C  0.92364789  0.09878161  0.01655641     0.23500
C491        C  0.93611364  0.12873732  0.50079002    -0.12500
C492        C  0.92078332  0.14614947  0.50514058     0.04900
C493        C  0.93727157  0.07866466  0.00784719     0.27300
C494        C  0.95468997  0.07306537  0.03333000    -0.13200
C495        C  0.96509930  0.05175344  0.02576429     0.05400
C496        C  0.96195989  0.03873467  0.99082745    -0.09100
C497        C  0.94352187  0.04431504  0.46542432     0.06200
C498        C  0.93059240  0.06329242  0.47465785    -0.13500
Br499      Br  0.97253138  0.14458041  0.47028669    -0.05600
Br500      Br  0.84201671  0.08601922  0.06805789     0.00100
Br501      Br  0.97891247  0.03693834  0.06568452     0.00500
Br502      Br  0.90283053  0.06830370  0.44204256    -0.03900
Br503      Br  0.93722512  0.18637434  0.48166593     0.00600
Br504      Br  0.87819246  0.04477963  0.05720635    -0.03200
Br505      Br  0.96359423  0.09419563  0.07912050    -0.04100
Br506      Br  0.93427572  0.02781410  0.41759056    -0.00100
C507        C  0.96008992  0.46753019  0.20465772     0.01300
C508        C  0.97199032  0.45362224  0.18031710     0.04200
C509        C  0.95179200  0.42731444  0.16005544    -0.11900
C510        C  0.91960952  0.41577931  0.16165508     0.23500
C511        C  0.90774002  0.43112261  0.18314003    -0.12500
C512        C  0.92774322  0.45670357  0.20482506     0.04900
C513        C  0.89846743  0.38718937  0.14099533     0.27300
C514        C  0.89223203  0.38946706  0.10439806    -0.13200
C515        C  0.87540992  0.36219904  0.08372561     0.05400
C516        C  0.86462690  0.33246152  0.09963265    -0.09100
C517        C  0.86921282  0.33028037  0.13686379     0.06200
C518        C  0.88634485  0.35750322  0.15733126    -0.13500
Br519      Br  0.86372905  0.41629263  0.18320204    -0.05600
Br520      Br  0.01618104  0.47160895  0.17223333     0.00100
Br521      Br  0.86907000  0.36576839  0.03310501     0.00500
Br522      Br  0.89465133  0.35422585  0.20744132    -0.03900
Br523      Br  0.90985663  0.47560169  0.23500729     0.00600
Br524      Br  0.96811287  0.40623387  0.13069234    -0.03200
Br525      Br  0.90822041  0.43014608  0.08235980    -0.04100
Br526      Br  0.85175930  0.28984696  0.16005571    -0.00100
C527        C  0.69263758  0.14012178  0.41944373     0.01300
C528        C  0.69429926  0.14468747  0.38175347     0.04200
C529        C  0.66887893  0.12503492  0.35992159    -0.11900
C530        C  0.64121628  0.10121048  0.37575278     0.23500
C531        C  0.63902763  0.09794689  0.41368291    -0.12500
C532        C  0.66484357  0.11679602  0.43532110     0.04900
C533        C  0.61501342  0.07868201  0.35264145     0.27300
C534        C  0.59450277  0.08723374  0.33691319    -0.13200
C535        C  0.57043830  0.06630101  0.31412131     0.05400
C536        C  0.56573817  0.03570976  0.30774059    -0.09100
C537        C  0.58532700  0.02671458  0.32595152     0.06200
C538        C  0.61030311  0.04835640  0.34701050    -0.13500
Br539      Br  0.60063633  0.06726338  0.43592072    -0.05600
Br540      Br  0.73192196  0.17728376  0.36005353     0.00100
Br541      Br  0.54556382  0.08140643  0.29136367     0.00500
Br542      Br  0.63874572  0.03667095  0.36793211    -0.03900
Br543      Br  0.66264508  0.10987341  0.48674310     0.00600
Br544      Br  0.67238354  0.12991730  0.30818333    -0.03200
Br545      Br  0.59974111  0.12810214  0.34689030    -0.04100
Br546      Br  0.57715766  0.98402273  0.32493738    -0.00100
N547        N  0.82373184  0.26308211  0.54206500    -0.27300
N548        N  0.84815847  0.26101702  0.55251943    -0.35100
C549        C  0.86607531  0.28542250  0.57347841     0.01000
C550        C  0.85256852  0.30399084  0.57695910     0.07100
C551        C  0.82571871  0.28925457  0.55654444    -0.06000
H552        H  0.88722401  0.28904259  0.58605398     0.07700
H553        H  0.80868649  0.29663209  0.55316128     0.08900
Cu554      Cu  0.85674548  0.22479940  0.54134851     0.44200
Cu555      Cu  0.78852956  0.22908015  0.50933398     0.42000
Cu556      Cu  0.79933119  0.16200614  0.99223794     0.43900
N557        N  0.85961127  0.18513692  0.53037694    -0.34700
N558        N  0.83785890  0.16157832  0.01226867    -0.28900
C559        C  0.84593129  0.13939388  0.00832270    -0.05000
C560        C  0.87413765  0.14947998  0.52484971     0.07200
C561        C  0.88223615  0.17862472  0.53857710     0.01000
H562        H  0.83266122  0.11786761  0.99365284     0.08600
H563        H  0.90316970  0.19410849  0.55276559     0.07700
N564        N  0.76320134  0.16659456  0.97148994    -0.36100
N565        N  0.75861963  0.19060349  0.97708529    -0.28300
C566        C  0.73281575  0.18534509  0.95915695    -0.03500
C567        C  0.72096961  0.15679967  0.94163397     0.05100
C568        C  0.74084103  0.14574716  0.95017613     0.03200
H569        H  0.72329420  0.20092717  0.95902498     0.08300
H570        H  0.73906911  0.12380137  0.94158814     0.07100
N571        N  0.17980398  0.43748624  0.96762589    -0.27300
N572        N  0.15457790  0.41096338  0.95963008    -0.35100
C573        C  0.13595004  0.41708674  0.93920929     0.01000
C574        C  0.14994422  0.44890722  0.93338108     0.07100
C575        C  0.17774832  0.46126875  0.95193258    -0.06000
H576        H  0.11435717  0.39949381  0.92805858     0.07700
H577        H  0.19551555  0.48546725  0.95284853     0.08900
Cu578      Cu  0.14639302  0.36635268  0.97178373     0.44200
Cu579      Cu  0.21637948  0.43929149  0.49813200     0.42000
Cu580      Cu  0.20776845  0.36138265  0.51072912     0.43900
N581        N  0.14406316  0.32372184  0.98144504    -0.34700
N582        N  0.16742505  0.32200116  0.49585456    -0.28900
C583        C  0.15972219  0.29182672  0.49950907    -0.05000
C584        C  0.13003960  0.27361601  0.48652150     0.07200
C585        C  0.12078738  0.29462214  0.97524685     0.01000
H586        H  0.17448095  0.28372250  0.51112940     0.08600
H587        H  0.09877157  0.28914852  0.96355857     0.07700
N588        N  0.24384768  0.40197165  0.53101194    -0.36100
N589        N  0.24712225  0.43027311  0.52816006    -0.28300
C590        C  0.27154997  0.44997498  0.54843073    -0.03500
C591        C  0.28394244  0.43301651  0.56457858     0.05100
C592        C  0.26587372  0.40287834  0.55253329     0.03200
H593        H  0.27901632  0.47437546  0.55214019     0.08300
H594        H  0.26780231  0.38270010  0.56009358     0.07100
N595        N  0.41925494  0.24449372  0.00880835    -0.27300
N596        N  0.39227425  0.24094914  0.99824232    -0.35100
C597        C  0.39718490  0.26336679  0.97408826     0.01000
C598        C  0.42873023  0.28206868  0.96882235     0.07100
C599        C  0.44214873  0.26951603  0.99134318    -0.06000
H600        H  0.37899970  0.26512175  0.96008764     0.07700
H601        H  0.46651683  0.27716980  0.99366845     0.08900
Cu602      Cu  0.34935187  0.20400617  0.01308718     0.44200
Cu603      Cu  0.42261519  0.21289427  0.54433097     0.42000
Cu604      Cu  0.34742714  0.14462423  0.56950145     0.43900
N605        N  0.30857317  0.16359560  0.52624511    -0.34700
N606        N  0.30771782  0.14135272  0.54709164    -0.28900
C607        C  0.27823791  0.11784174  0.54976230    -0.05000
C608        C  0.25981740  0.12583909  0.52955380     0.06300
C609        C  0.27973345  0.15494252  0.01505955     0.01000
H610        H  0.27081031  0.09653286  0.56509044     0.08600
H611        H  0.27372910  0.16870966  0.99747523     0.07700
N612        N  0.39017591  0.15171228  0.58662800    -0.36100
N613        N  0.41738931  0.17602757  0.57793281    -0.28300
C614        C  0.43991277  0.17196256  0.59294015    -0.03500
C615        C  0.42609696  0.14380057  0.61172492     0.05100
C616        C  0.39465379  0.13171387  0.60709867     0.03200
H617        H  0.46445943  0.18787072  0.58971186     0.08300
H618        H  0.37632471  0.10961513  0.61730763     0.07100
N619        N  0.16173320  0.75796852  0.50655958    -0.27300
N620        N  0.13468369  0.75632906  0.50064784    -0.35100
C621        C  0.11299133  0.73456175  0.52251930     0.01000
C622        C  0.12674633  0.72196161  0.54416859     0.07100
C623        C  0.15778298  0.73743122  0.53316323    -0.06000
H624        H  0.08892417  0.72866550  0.52293508     0.07700
H625        H  0.17623831  0.73421850  0.54402532     0.08900
Cu626      Cu  0.12807394  0.78596954  0.46666722     0.44200
Cu627      Cu  0.20248682  0.78820596  0.47701558     0.42000
Cu628      Cu  0.19284234  0.84123561  0.91549343     0.43900
N629        N  0.12850282  0.82327881  0.44018089    -0.34700
N630        N  0.15264750  0.84405913  0.92131702    -0.28900
C631        C  0.14795044  0.86789688  0.91214094    -0.05000
C632        C  0.11945538  0.86174959  0.42602249     0.07200
C633        C  0.10778862  0.83326705  0.44356589     0.01000
H634        H  0.16492757  0.88911687  0.89872526     0.08600
H635        H  0.08690191  0.82187316  0.46002592     0.07700
N636        N  0.23315272  0.83837933  0.91889549    -0.36100
N637        N  0.23756790  0.81997547  0.94134231    -0.28300
C638        C  0.26726529  0.82615876  0.93747178    -0.03500
C639        C  0.28203556  0.84958995  0.91153345     0.05100
C640        C  0.25952033  0.85647776  0.90042829     0.03200
H641        H  0.27759503  0.81508579  0.95300872     0.08300
H642        H  0.26238448  0.87412941  0.88089867     0.07100
N643        N  0.82237432  0.58512285  0.98617177    -0.27300
N644        N  0.84781596  0.61235898  0.99022514    -0.35100
C645        C  0.87096223  0.61291422  0.97041798     0.01000
C646        C  0.85983370  0.58456737  0.95309747     0.07100
C647        C  0.82886124  0.56747461  0.96372321    -0.06000
H648        H  0.89392931  0.63294395  0.96774798     0.07700
H649        H  0.81226179  0.54437062  0.95512948     0.08900
Cu650      Cu  0.84898466  0.64937615  0.01806012     0.44200
Cu651      Cu  0.77974845  0.57523613  0.00970417     0.42000
Cu652      Cu  0.77528549  0.64629436  0.51877318     0.43900
N653        N  0.84354265  0.68795223  0.02633356    -0.34700
N654        N  0.81722286  0.68761424  0.52018259    -0.28900
C655        C  0.82252241  0.71717478  0.51949292    -0.05000
C656        C  0.85364054  0.73723382  0.52677754     0.07200
C657        C  0.86595502  0.71751221  0.03156299     0.01000
H658        H  0.80498549  0.72345224  0.51357013     0.08600
H659        H  0.88959385  0.72397943  0.03756737     0.07700
N660        N  0.74081611  0.60293241  0.53702560    -0.36100
N661        N  0.74259921  0.57698461  0.53520933    -0.28300
C662        C  0.71868478  0.55438656  0.55428694    -0.03500
C663        C  0.70115419  0.56681968  0.56858394     0.05100
C664        C  0.71590715  0.59756668  0.55708265     0.03200
H665        H  0.71496281  0.53101126  0.55856275     0.08300
H666        H  0.70988478  0.61524435  0.56438869     0.07100
N667        N  0.58564316  0.81443548  0.52435211    -0.27300
N668        N  0.60897678  0.84133830  0.51291889    -0.35100
C669        C  0.60816828  0.86489828  0.53047985     0.01000
C670        C  0.58321322  0.85249967  0.55441155     0.07100
C671        C  0.56945196  0.82033568  0.54967499    -0.06000
H672        H  0.62497222  0.88929748  0.52672261     0.07700
H673        H  0.54955385  0.80254788  0.56418371     0.08900
Cu674      Cu  0.64356856  0.84474926  0.47757749     0.44200
Cu675      Cu  0.57869921  0.77109672  0.00545915     0.42000
Cu676      Cu  0.65186717  0.77626443  0.98126439     0.43900
N677        N  0.68302899  0.84371117  0.45969125    -0.34700
N678        N  0.68779552  0.82023461  0.96732947    -0.28900
C679        C  0.71769848  0.82904132  0.96067475    -0.05000
C680        C  0.73262684  0.85935217  0.94677780     0.07200
C681        C  0.70933970  0.86742372  0.44596948     0.01000
H682        H  0.72788327  0.81450834  0.96653077     0.08600
H683        H  0.71119080  0.88911797  0.43685555     0.07700
N684        N  0.60948143  0.73583657  0.97543403    -0.36100
N685        N  0.58236528  0.73390714  0.98243783    -0.28300
C686        C  0.55974586  0.70637736  0.96974443    -0.03500
C687        C  0.57342845  0.69034484  0.95422719     0.05100
C688        C  0.60490319  0.70980229  0.95842034     0.03200
H689        H  0.53537447  0.69919618  0.97025002     0.08300
H690        H  0.62324139  0.70620720  0.94765030     0.07100
C691        C  0.01221000  0.03584341  0.48631242     0.02300
C692        C  0.97878203  0.02040816  0.48296636     0.02300
C693        C  0.96168875  0.98718058  0.47923439     0.02300
C694        C  0.97681794  0.96913233  0.48337228     0.02300
C695        C  0.00985391  0.98383748  0.48415637     0.02300
C696        C  0.02781356  0.01748275  0.48635810     0.02300
C697        C  0.02411835  0.51229199  0.77470264     0.86500
C698        C  0.00191359  0.48571234  0.75041942    -0.53800
C699        C  0.98157925  0.49122732  0.73136146     0.09400
C700        C  0.98510288  0.52390577  0.73921405     0.20400
C701        C  0.03944929  0.54127530  0.74979253    -0.54500
C702        C  0.01964585  0.54742679  0.73059216     0.09500
C703        C  0.00292201  0.51926588  0.79895929    -0.54000
C704        C  0.98215953  0.52497811  0.78100481     0.10100
H705        H  0.00241656  0.46394249  0.74838889     0.14600
H706        H  0.96884517  0.52908260  0.72431999     0.00300
H707        H  0.06397724  0.55721418  0.74857462     0.14900
H708        H  0.00427373  0.51972454  0.82819559     0.14700
C709        C  0.52384227  0.97685194  0.72995899     0.86500
C710        C  0.49580539  0.95567327  0.75418910    -0.53800
C711        C  0.48761530  0.97063729  0.77911932     0.09400
C712        C  0.50811977  0.00666266  0.77721019     0.20400
C713        C  0.51303712  0.99866514  0.71304706    -0.54500
C714        C  0.50547631  0.01500167  0.73742666     0.09500
C715        C  0.54986008  0.99813761  0.75559913    -0.54000
C716        C  0.54220976  0.01370248  0.78077672     0.10100
H717        H  0.48152605  0.93075777  0.74996617     0.14600
H718        H  0.50124436  0.01864830  0.79751290     0.00300
H719        H  0.51089161  0.00073042  0.68421638     0.14900
H720        H  0.57304837  0.00124556  0.75309213     0.14700
C721        C  0.45920514  0.47418649  0.73698054     0.86500
C722        C  0.45425114  0.44574866  0.75949576    -0.53800
C723        C  0.47857914  0.44998303  0.78063395     0.09400
C724        C  0.50738185  0.48284795  0.77481090     0.20400
C725        C  0.47140925  0.50180523  0.76390270    -0.54500
C726        C  0.49580620  0.50581696  0.78481915     0.09500
C727        C  0.48811369  0.48275629  0.71416582    -0.54000
C728        C  0.51329060  0.48702017  0.73302148     0.10100
H729        H  0.43268696  0.42376784  0.75852856     0.14600
H730        H  0.52745449  0.48665310  0.79098579     0.00300
H731        H  0.46363152  0.51877469  0.76492879     0.14900
H732        H  0.48896974  0.48613886  0.68511377     0.14700
C733        C  0.76670444  0.87939062  0.93883851     0.01300
C734        C  0.78442736  0.86565531  0.92626017     0.04200
C735        C  0.81710087  0.88259738  0.92740136    -0.11900
C736        C  0.83241031  0.91450704  0.93606982     0.23500
C737        C  0.81496018  0.92964010  0.44146142    -0.12500
C738        C  0.78259280  0.91201176  0.44609584     0.04900
C739        C  0.86569625  0.93117177  0.94638232     0.27300
C740        C  0.87293964  0.93865772  0.48290220    -0.13200
C741        C  0.90341525  0.95985997  0.49307977     0.05400
C742        C  0.92815317  0.97001059  0.46781818    -0.09100
C743        C  0.92089839  0.96021235  0.93136539     0.06200
C744        C  0.88972520  0.94247857  0.92046439    -0.13500
Br745      Br  0.83626107  0.97466221  0.44566494    -0.05600
Br746      Br  0.76488343  0.82422707  0.90595828     0.00100
Br747      Br  0.90900419  0.97644013  0.54075929     0.00500
Br748      Br  0.87974711  0.93535357  0.86994330    -0.03900
Br749      Br  0.76265220  0.93311228  0.46820611     0.00600
Br750      Br  0.84075766  0.86164193  0.91929974    -0.03200
Br751      Br  0.84053055  0.91976365  0.51929208    -0.04100
Br752      Br  0.95314826  0.97502107  0.89473097    -0.00100
C753        C  0.57410584  0.87009788  0.58021976     0.01300
C754        C  0.54392318  0.86639125  0.57969659     0.04200
C755        C  0.53572669  0.88382531  0.60323954    -0.11900
C756        C  0.55750329  0.90519423  0.62759660     0.23500
C757        C  0.58754509  0.90876118  0.62841336    -0.12500
C758        C  0.59579172  0.89129960  0.60503365     0.04900
C759        C  0.54874492  0.92333074  0.65313665     0.27300
C760        C  0.55703560  0.95452372  0.64553937    -0.13200
C761        C  0.55069664  0.97232932  0.67074409     0.05400
C762        C  0.53412353  0.95867296  0.70353831    -0.09100
C763        C  0.53007295  0.92855893  0.71272734     0.06200
C764        C  0.53530409  0.91050627  0.68686023    -0.13500
Br765      Br  0.61736106  0.93751983  0.66212898    -0.05600
Br766      Br  0.51392720  0.83842179  0.54567096     0.00100
Br767      Br  0.57051582  0.01658176  0.66200733     0.00500
Br768      Br  0.52501022  0.86804288  0.69793962    -0.03900
Br769      Br  0.63642425  0.89532932  0.60883328     0.00600
Br770      Br  0.49458851  0.87868359  0.60216300    -0.03200
Br771      Br  0.57811798  0.97305779  0.60049550    -0.04100
Br772      Br  0.52459204  0.91376930  0.76215928    -0.00100
C773        C  0.55888447  0.66123211  0.93253128     0.01300
C774        C  0.54633283  0.66084363  0.89834366     0.04200
C775        C  0.53608337  0.63447357  0.87594977    -0.11900
C776        C  0.53821012  0.60827197  0.88755082     0.23500
C777        C  0.54971744  0.60819337  0.92216659    -0.12500
C778        C  0.56018896  0.63462294  0.94446628     0.04900
C779        C  0.52820329  0.58076437  0.86338932     0.27300
C780        C  0.49709668  0.55704106  0.86331278    -0.13200
C781        C  0.48727749  0.53168232  0.83953158     0.05400
C782        C  0.50829075  0.52983660  0.81467521    -0.09100
C783        C  0.54032199  0.55202976  0.81803673     0.06200
C784        C  0.54990985  0.57783158  0.84138927    -0.13500
Br785      Br  0.55115042  0.57173463  0.93880579    -0.05600
Br786      Br  0.54468380  0.69704358  0.88120440     0.00100
Br787      Br  0.44553392  0.49791825  0.84474662     0.00500
Br788      Br  0.59296447  0.60979919  0.84320806    -0.03900
Br789      Br  0.57604924  0.63424059  0.99166404     0.00600
Br790      Br  0.51965423  0.63431130  0.82890689    -0.03200
Br791      Br  0.46796354  0.55940834  0.89634106    -0.04100
Br792      Br  0.57217301  0.54738978  0.79345706    -0.00100
C793        C  0.87049759  0.77214657  0.52671554     0.01300
C794        C  0.90125543  0.78926373  0.01295347     0.04200
C795        C  0.91714185  0.82200461  0.01397832    -0.11900
C796        C  0.90089511  0.83817091  0.52138844     0.23500
C797        C  0.87001274  0.82147000  0.53392453    -0.12500
C798        C  0.85583296  0.78890832  0.53946113     0.04900
C799        C  0.91584378  0.87190928  0.51171978     0.27300
C800        C  0.92623071  0.89508952  0.53842586    -0.13200
C801        C  0.94533789  0.92673626  0.52871705     0.05400
C802        C  0.95675755  0.93513417  0.49278203    -0.09100
C803        C  0.94667652  0.91141163  0.96650965     0.06200
C804        C  0.92433278  0.88063269  0.97543448    -0.13500
Br805      Br  0.84646301  0.84269058  0.54146467    -0.05600
Br806      Br  0.92104337  0.76962419  0.98706816     0.00100
Br807      Br  0.96122691  0.95755839  0.56658549     0.00500
Br808      Br  0.90667522  0.84947544  0.93801463    -0.03900
Br809      Br  0.81740164  0.76844596  0.56658933     0.00600
Br810      Br  0.96111692  0.84492714  0.00306918    -0.03200
Br811      Br  0.91696695  0.88336731  0.58865807    -0.04100
Br812      Br  0.96594976  0.91839588  0.91986046    -0.00100
C813        C  0.67436347  0.55203754  0.59400159     0.01300
C814        C  0.67913744  0.55035347  0.63123164     0.04200
C815        C  0.65386346  0.53882397  0.65573515    -0.11900
C816        C  0.62366830  0.52887617  0.64316021     0.23500
C817        C  0.61884778  0.52995727  0.60583685    -0.12500
C818        C  0.64411729  0.54169059  0.58140918     0.04900
C819        C  0.59702311  0.51839496  0.66899912     0.27300
C820        C  0.57825404  0.48644858  0.67742632    -0.13200
C821        C  0.55090721  0.47616115  0.69823635     0.05400
C822        C  0.54338076  0.49797782  0.71336477    -0.09100
C823        C  0.56126226  0.52976363  0.70299731     0.06200
C824        C  0.58835833  0.53999129  0.68178722    -0.13500
Br825      Br  0.57751376  0.51577800  0.58832752    -0.05600
Br826      Br  0.72053485  0.56512550  0.64878280     0.00100
Br827      Br  0.52103516  0.43218599  0.69973481     0.00500
Br828      Br  0.61293030  0.58350182  0.66850110    -0.03900
Br829      Br  0.63742643  0.54403123  0.53059466     0.00600
Br830      Br  0.66050038  0.53720753  0.70666458    -0.03200
Br831      Br  0.58936322  0.45667135  0.65877683    -0.04100
Br832      Br  0.54620895  0.55859001  0.71281074    -0.00100
C833        C  0.95993274  0.53191818  0.80154676     0.01300
C834        C  0.93811822  0.50950181  0.82599429     0.04200
C835        C  0.92136021  0.51767418  0.85046498    -0.11900
C836        C  0.92637165  0.54841331  0.85120361     0.23500
C837        C  0.94704049  0.57049264  0.82603085    -0.12500
C838        C  0.96298968  0.56205973  0.80064435     0.04900
C839        C  0.90918026  0.55733893  0.87760793     0.27300
C840        C  0.88201099  0.55749431  0.86705255    -0.13200
C841        C  0.86624912  0.56694206  0.89141277     0.05400
C842        C  0.87700709  0.57546343  0.92702499    -0.09100
C843        C  0.90447306  0.57561682  0.93745402     0.06200
C844        C  0.92037346  0.56645124  0.91288211    -0.13500
Br845      Br  0.95419104  0.61276723  0.82737345    -0.05600
Br846      Br  0.92955053  0.46689502  0.82502869     0.00100
Br847      Br  0.83139865  0.57061737  0.87477664     0.00500
Br848      Br  0.95751508  0.56616951  0.92746913    -0.03900
Br849      Br  0.98849313  0.59213014  0.76471629     0.00600
Br850      Br  0.89155517  0.48686620  0.88342555    -0.03200
Br851      Br  0.86644503  0.54461715  0.81896161    -0.04100
Br852      Br  0.92029565  0.58789278  0.98559249    -0.00100
C853        C  0.10694000  0.88344375  0.42898246     0.01300
C854        C  0.12214580  0.91049863  0.45035040     0.04200
C855        C  0.10814750  0.92892711  0.45693479    -0.11900
C856        C  0.07898634  0.92048914  0.44214600     0.23500
C857        C  0.06416865  0.89393343  0.92004787    -0.12500
C858        C  0.07816425  0.87551724  0.91340613     0.04900
C859        C  0.06201949  0.93694526  0.45351248     0.27300
C860        C  0.04602843  0.92902885  0.48660890    -0.13200
C861        C  0.02826712  0.94296129  0.49728690     0.05400
C862        C  0.02615831  0.96536010  0.47432679    -0.09100
C863        C  0.04068639  0.97096155  0.93980379     0.06200
C864        C  0.05966172  0.95819135  0.93032840    -0.13500
Br865      Br  0.02360596  0.88157261  0.90105950    -0.05600
Br866      Br  0.16081769  0.92095667  0.47338995     0.00100
Br867      Br  0.00701968  0.92811091  0.54264972     0.00500
Br868      Br  0.08238958  0.96947177  0.88520500    -0.03900
Br869      Br  0.05764468  0.83905903  0.88340273     0.00600
Br870      Br  0.12750860  0.96416950  0.48887317    -0.03200
Br871      Br  0.04862738  0.89827159  0.51718502    -0.04100
Br872      Br  0.03065735  0.99163620  0.90246871    -0.00100
C873        C  0.03187845  0.57465176  0.70439587     0.01300
C874        C  0.02236401  0.57038245  0.66785510     0.04200
C875        C  0.03698317  0.59510652  0.64254344    -0.11900
C876        C  0.06200060  0.62408298  0.65283371     0.23500
C877        C  0.07120835  0.62878386  0.68915286    -0.12500
C878        C  0.05585187  0.60466239  0.71494146     0.04900
C879        C  0.07896169  0.64943538  0.62534729     0.27300
C880        C  0.10011901  0.64772629  0.60103464    -0.13200
C881        C  0.11527697  0.67096603  0.57420705     0.05400
C882        C  0.11109716  0.69742820  0.57288736    -0.09100
C883        C  0.09078175  0.69966000  0.59840919     0.06200
C884        C  0.07405307  0.67529281  0.62354410    -0.13500
Br885      Br  0.10590757  0.66823340  0.70328066    -0.05600
Br886      Br  0.99098326  0.53046013  0.65060866     0.00100
Br887      Br  0.13977885  0.66483890  0.53779018     0.00500
Br888      Br  0.04386752  0.67697320  0.65537711    -0.03900
Br889      Br  0.06760670  0.61393540  0.76498302     0.00600
Br890      Br  0.02328657  0.58924093  0.59308791    -0.03200
Br891      Br  0.10837553  0.61334788  0.60468400    -0.04100
Br892      Br  0.08694993  0.73682813  0.60108341    -0.00100
C893        C  0.45868440  0.95306229  0.80166802     0.01300
C894        C  0.46032115  0.95051287  0.83945579     0.04200
C895        C  0.43308716  0.93221940  0.86018999    -0.11900
C896        C  0.40374061  0.91771829  0.84367339     0.23500
C897        C  0.40204446  0.92070656  0.80603661    -0.12500
C898        C  0.42930887  0.93710471  0.78498619     0.04900
C899        C  0.37447957  0.89970747  0.86550307     0.27300
C900        C  0.35773634  0.86671634  0.86443843    -0.13200
C901        C  0.32791427  0.85000352  0.88053048     0.05400
C902        C  0.31512738  0.86606161  0.89923495    -0.09100
C903        C  0.33307395  0.89882146  0.90286620     0.06200
C904        C  0.36211053  0.91561284  0.88522440    -0.13500
Br905      Br  0.36202013  0.90291083  0.78337096    -0.05600
Br906      Br  0.50000456  0.97083869  0.86272334     0.00100
Br907      Br  0.30377037  0.80539109  0.87455570     0.00500
Br908      Br  0.38411958  0.96065791  0.88626785    -0.03900
Br909      Br  0.42585380  0.93814156  0.73312591     0.00600
Br910      Br  0.43589059  0.92611992  0.91112853    -0.03200
Br911      Br  0.37541033  0.84457776  0.83978339    -0.04100
Br912      Br  0.31819999  0.92077323  0.93290506    -0.00100
C913        C  0.06277971  0.03254689  0.49167609     0.01300
C914        C  0.07436916  0.02428469  0.52241126     0.04200
C915        C  0.10644378  0.03647287  0.52719284    -0.11900
C916        C  0.12779668  0.05998814  0.50405699     0.23500
C917        C  0.11698786  0.06965716  0.97456809    -0.12500
C918        C  0.08501823  0.05495154  0.96716872     0.04900
C919        C  0.16161012  0.07571025  0.51164203     0.27300
C920        C  0.17398542  0.09785736  0.53956716    -0.13200
C921        C  0.20605345  0.11349595  0.54612573     0.05400
C922        C  0.22598087  0.10754574  0.52442702    -0.09100
C923        C  0.21373083  0.08548915  0.49652091     0.06200
C924        C  0.18161542  0.06958751  0.49010832    -0.13500
Br925      Br  0.14656186  0.10381842  0.94451111    -0.05600
Br926      Br  0.04762399  0.00102462  0.56214963     0.00100
Br927      Br  0.22289207  0.14337127  0.58467632     0.00500
Br928      Br  0.16521641  0.04046781  0.45078362    -0.03900
Br929      Br  0.07419492  0.06579107  0.92210396     0.00600
Br930      Br  0.12145561  0.02158585  0.56623683    -0.03200
Br931      Br  0.14718341  0.10787394  0.56776393    -0.04100
Br932      Br  0.24115471  0.07775238  0.46647252    -0.00100
C933        C  0.44112499  0.12831338  0.63081315     0.01300
C934        C  0.45525520  0.13944167  0.66449221     0.04200
C935        C  0.46720895  0.12307362  0.68392348    -0.11900
C936        C  0.46482120  0.09533636  0.66992946     0.23500
C937        C  0.45100106  0.08442334  0.63609748    -0.12500
C938        C  0.43938240  0.10094481  0.61650516     0.04900
C939        C  0.47649405  0.07730846  0.69072060     0.27300
C940        C  0.50657509  0.08226505  0.68432227    -0.13200
C941        C  0.51670338  0.06345503  0.70177202     0.05400
C942        C  0.49655608  0.03877171  0.72517244    -0.09100
C943        C  0.46767192  0.03640414  0.73457292     0.06200
C944        C  0.45737124  0.05491080  0.71654946    -0.13500
Br945      Br  0.44746775  0.04634847  0.61703590    -0.05600
Br946      Br  0.45686669  0.17626455  0.68477689     0.00100
Br947      Br  0.55954699  0.07435315  0.69677200     0.00500
Br948      Br  0.41647507  0.04903901  0.72617746    -0.03900
Br949      Br  0.42149926  0.08631124  0.56966734     0.00600
Br950      Br  0.48636254  0.13818005  0.73005869    -0.03200
Br951      Br  0.53370179  0.11471707  0.65105939    -0.04100
Br952      Br  0.44233593  0.00965599  0.77311470    -0.00100
C953        C  0.44371951  0.30728810  0.94124107     0.01300
C954        C  0.43838462  0.29987219  0.90428853     0.04200
C955        C  0.44811361  0.32380057  0.87812732    -0.11900
C956        C  0.46296676  0.35535803  0.88866396     0.23500
C957        C  0.46979867  0.36286849  0.92539464    -0.12500
C958        C  0.46040890  0.33889912  0.95159499     0.04900
C959        C  0.46784019  0.38012463  0.86178658     0.27300
C960        C  0.49577698  0.39646432  0.84223658    -0.13200
C961        C  0.49958436  0.41904183  0.81587991     0.05400
C962        C  0.47538650  0.42613573  0.80914279    -0.09100
C963        C  0.44756733  0.40991778  0.83032263     0.06200
C964        C  0.44380115  0.38677034  0.85557845    -0.13500
Br965      Br  0.49036397  0.40603600  0.93984801    -0.05600
Br966      Br  0.41722811  0.25675753  0.88945205     0.00100
Br967      Br  0.53799113  0.43828611  0.78895863     0.00500
Br968      Br  0.40518746  0.36346565  0.88218185    -0.03900
Br969      Br  0.46855229  0.34935137  0.00188508     0.00600
Br970      Br  0.43966912  0.31343509  0.82782917    -0.03200
Br971      Br  0.52867037  0.38716086  0.85165278    -0.04100
Br972      Br  0.41418782  0.41951732  0.82808170    -0.00100
C973        C  0.03036935  0.07155672  0.48674407     0.01300
C974        C  0.02823708  0.08864203  0.95683208     0.04200
C975        C  0.04271913  0.12152106  0.95732346    -0.11900
C976        C  0.06139325  0.13828162  0.48640149     0.23500
C977        C  0.06524075  0.12214426  0.51529023    -0.12500
C978        C  0.04927671  0.08919596  0.51620845     0.04900
C979        C  0.07850112  0.17305737  0.48582343     0.27300
C980        C  0.10653154  0.18920800  0.96617839    -0.13200
C981        C  0.12322768  0.22207584  0.96611824     0.05400
C982        C  0.11198334  0.23904940  0.48576554    -0.09100
C983        C  0.08402875  0.22285839  0.50569038     0.06200
C984        C  0.06755827  0.18995818  0.50606081    -0.13500
Br985      Br  0.09332040  0.14596458  0.55354770    -0.05600
Br986      Br  0.00944747  0.06819227  0.91234803     0.00100
Br987      Br  0.16108723  0.24371514  0.93814441     0.00500
Br988      Br  0.03093429  0.16798731  0.53592074    -0.03900
Br989      Br  0.05414361  0.07070750  0.55937532     0.00600
Br990      Br  0.03800123  0.14410802  0.91739922    -0.03200
Br991      Br  0.12251264  0.16608340  0.94029883    -0.04100
Br992      Br  0.06902571  0.24557309  0.53416558    -0.00100
C993        C  0.43052658  0.46704761  0.71346290     0.01300
C994        C  0.42259501  0.44599710  0.68379686     0.04200
C995        C  0.39934485  0.44224525  0.65928181    -0.11900
C996        C  0.38386157  0.45950515  0.66334288     0.23500
C997        C  0.38989495  0.47864960  0.69356619    -0.12500
C998        C  0.41090718  0.48022395  0.71997734     0.04900
C999        C  0.35819495  0.45432325  0.63862992     0.27300
C1000       C  0.36426688  0.47172695  0.60639084    -0.13200
C1001       C  0.33983887  0.46600532  0.58276076     0.05400
C1002       C  0.30912962  0.44299032  0.59148772    -0.09100
C1003       C  0.30299417  0.42682989  0.62480003     0.06200
C1004       C  0.32745555  0.43208548  0.64790064    -0.13500
Br1005     Br  0.36770776  0.50152887  0.69956935    -0.05600
Br1006     Br  0.44117605  0.41971712  0.67724988     0.00100
Br1007     Br  0.34884093  0.48864059  0.53772366     0.00500
Br1008     Br  0.31902663  0.40824958  0.69209986    -0.03900
Br1009     Br  0.40369076  0.49123658  0.76749321     0.00600
Br1010     Br  0.38778042  0.41271830  0.62026230    -0.03200
Br1011     Br  0.40626231  0.50289881  0.59448285    -0.04100
Br1012     Br  0.26086749  0.39824017  0.63980490    -0.00100
C1013       C  0.13826959  0.46472618  0.90891602     0.01300
C1014       C  0.13233097  0.45546997  0.87247412     0.04200
C1015       C  0.11638828  0.46611116  0.85047859    -0.11900
C1016       C  0.10631342  0.48622346  0.86459532     0.23500
C1017       C  0.11370949  0.49692539  0.90032647    -0.12500
C1018       C  0.12978438  0.48632257  0.92242571     0.04900
C1019       C  0.08578625  0.49373894  0.84255743     0.27300
C1020       C  0.09820217  0.51562772  0.81425681    -0.13200
C1021       C  0.07847051  0.51795049  0.78880868     0.05400
C1022       C  0.04596480  0.50380658  0.79594050    -0.09100
C1023       C  0.03365355  0.48035923  0.82347777     0.06200
C1024       C  0.05345471  0.47527982  0.84620740    -0.13500
Br1025     Br  0.10046044  0.52499914  0.91921946    -0.05600
Br1026     Br  0.14609056  0.42814104  0.85231303     0.00100
Br1027     Br  0.09548087  0.52910216  0.74042624     0.00500
Br1028     Br  0.03642389  0.44208879  0.88189482    -0.03900
Br1029     Br  0.13831245  0.49985311  0.97179775     0.00600
Br1030     Br  0.10693262  0.45185612  0.80129270    -0.03200
Br1031     Br  0.14258477  0.54128288  0.80918475    -0.04100
Br1032     Br  0.98981799  0.45178524  0.82811735    -0.00100
C1033       C  0.89252111  0.13330829  0.52457562     0.01300
C1034       C  0.88035958  0.10355796  0.54084284     0.04200
C1035       C  0.89594829  0.08637228  0.53694359    -0.11900
C1036       C  0.92364763  0.09878136  0.51655698     0.23500
C1037       C  0.93611397  0.12873756  0.00078938    -0.12500
C1038       C  0.92078364  0.14614973  0.00513978     0.04900
C1039       C  0.93727136  0.07866445  0.50784770     0.27300
C1040       C  0.95468983  0.07306523  0.53333047    -0.13200
C1041       C  0.96509915  0.05175328  0.52576477     0.05400
C1042       C  0.96195965  0.03873443  0.49082797    -0.09100
C1043       C  0.94352217  0.04431533  0.96542376     0.06200
C1044       C  0.93059265  0.06329266  0.97465732    -0.13500
Br1045     Br  0.97253176  0.14458058  0.97028615    -0.05600
Br1046     Br  0.84201650  0.08601882  0.56805877     0.00100
Br1047     Br  0.97891245  0.03693830  0.56568499     0.00500
Br1048     Br  0.90283075  0.06830391  0.94204204    -0.03900
Br1049     Br  0.93722542  0.18637450  0.98166492     0.00600
Br1050     Br  0.87819242  0.04477940  0.55720713    -0.03200
Br1051     Br  0.96359424  0.09419562  0.57912090    -0.04100
Br1052     Br  0.93427620  0.02781461  0.91758991    -0.00100
C1053       C  0.96009066  0.46753075  0.70465728     0.01300
C1054       C  0.97199111  0.45362283  0.68031666     0.04200
C1055       C  0.95179281  0.42731501  0.66005502    -0.11900
C1056       C  0.91961033  0.41577985  0.66165461     0.23500
C1057       C  0.90774078  0.43112311  0.68313956    -0.12500
C1058       C  0.92774395  0.45670406  0.70482464     0.04900
C1059       C  0.89846828  0.38718993  0.64099477     0.27300
C1060       C  0.89223314  0.38946765  0.60439742    -0.13200
C1061       C  0.87541107  0.36219964  0.58372492     0.05400
C1062       C  0.86462778  0.33246210  0.59963201    -0.09100
C1063       C  0.86921349  0.33028093  0.63686322     0.06200
C1064       C  0.88634550  0.35750377  0.65733073    -0.13500
Br1065     Br  0.86372981  0.41629308  0.68320154    -0.05600
Br1066     Br  0.01618183  0.47160963  0.67223289     0.00100
Br1067     Br  0.86907161  0.36576904  0.53310419     0.00500
Br1068     Br  0.89465164  0.35422635  0.70744090    -0.03900
Br1069     Br  0.90985729  0.47560204  0.73500697     0.00600
Br1070     Br  0.96811375  0.40623440  0.63069208    -0.03200
Br1071     Br  0.90822178  0.43014669  0.58235912    -0.04100
Br1072     Br  0.85175970  0.28984752  0.66005518    -0.00100
C1073       C  0.69263726  0.14012133  0.91944413     0.01300
C1074       C  0.69429901  0.14468674  0.88175382     0.04200
C1075       C  0.66887866  0.12503415  0.85992201    -0.11900
C1076       C  0.64121594  0.10120993  0.87575331     0.23500
C1077       C  0.63902725  0.09794657  0.91368346    -0.12500
C1078       C  0.66484319  0.11679578  0.93532160     0.04900
C1079       C  0.61501305  0.07868143  0.85264207     0.27300
C1080       C  0.59450247  0.08723318  0.83691371    -0.13200
C1081       C  0.57043797  0.06630042  0.81412189     0.05400
C1082       C  0.56573778  0.03570913  0.80774134    -0.09100
C1083       C  0.58532654  0.02671393  0.82595238     0.06200
C1084       C  0.61030268  0.04835577  0.84701129    -0.13500
Br1085     Br  0.60063590  0.06726325  0.93592136    -0.05600
Br1086     Br  0.73192182  0.17728275  0.86005374     0.00100
Br1087     Br  0.54556357  0.08140585  0.79136408     0.00500
Br1088     Br  0.63874527  0.03667033  0.86793297    -0.03900
Br1089     Br  0.66264465  0.10987351  0.98674366     0.00600
Br1090     Br  0.67238332  0.12991615  0.80818371    -0.03200
Br1091     Br  0.59974098  0.12810169  0.84689053    -0.04100
Br1092     Br  0.57715707  0.98402203  0.82493847    -0.00100
loop_ 
_geom_bond_atom_site_label_1 
_geom_bond_atom_site_label_2 
_geom_bond_distance 
_geom_bond_site_symmetry_2 
_ccdc_geom_bond_type 
N1            N2   1.325       .  A
N1            C5   1.355       .  A
N1           Cu9   2.118       .  S
N2            C3   1.342       .  A
N2           Cu8   2.068       .  S
C3            C4   1.379       .  A
C3            H6   1.083       .  S
C4            C5   1.393       .  A
C4          C516   1.488       .  S
C5            H7   1.079       .  S
Cu8          N11   2.066       .  S
Cu9         N565   2.118   1_554  S
Cu10         N12   2.065       .  S
Cu10         N18   2.067       .  S
N11         N558   1.320       .  A
N11          C15   1.346       .  A
N12         N557   1.320       .  A
N12          C13   1.343       .  A
C13         C560   1.382       .  A
C13          H16   1.083       .  S
C14          C15   1.384       .  A
C14         C559   1.382       .  A
C14         C487   1.476       .  S
C15          H17   1.080       .  S
N18          N19   1.324       .  A
N18          C22   1.343       .  A
N19          C20   1.354       .  A
N19        Cu555   2.118       .  S
C20          C21   1.392       .  A
C20          H23   1.080       .  S
C21          C22   1.378       .  A
C21         C527   1.487       .  S
C22          H24   1.088       .  S
N25          N26   1.325       .  A
N25          C29   1.354       .  A
N25        Cu579   2.110       .  S
N26          C27   1.342       .  A
N26         Cu32   2.073       .  S
C27          C28   1.380       .  A
C27          H30   1.078       .  S
C28          C29   1.391       .  A
C28         C467   1.487       .  S
C29          H31   1.078       .  S
Cu32         N35   2.073       .  S
Cu33         N43   2.110   1_556  S
Cu33        N571   2.110       .  S
Cu34         N36   2.065   1_554  S
Cu34         N42   2.065       .  S
N35         N582   1.319       .  A
N35          C39   1.346       .  A
N36         N581   1.319       .  A
N36          C37   1.344       .  A
C37          C38   1.384       .  A
C37          H40   1.082   1_556  S
C38         C585   1.386       .  A
C38         C436   1.482       .  S
C39         C584   1.386       .  A
C39          H41   1.082       .  S
N42          N43   1.324       .  A
N42          C46   1.341       .  A
N43          C44   1.354       .  A
C44          C45   1.393       .  A
C44          H47   1.077       .  S
C45          C46   1.379       .  A
C45         C456   1.488       .  S
C46          H48   1.080       .  S
N49          N50   1.324       .  A
N49          C53   1.353       .  A
N49        Cu603   2.104       .  S
N50          C51   1.343       .  A
N50         Cu56   2.074       .  S
C51          C52   1.381       .  A
C51          H54   1.083       .  S
C52          C53   1.390       .  A
C52         C407   1.487       .  S
C53          H55   1.078       .  S
Cu56        N605   2.073       .  S
Cu57         N67   2.105       .  S
Cu57        N595   2.104       .  S
Cu58         N60   2.075       .  S
Cu58         N66   2.076       .  S
N59          N60   1.321       .  A
N59         C609   1.345       .  A
N59        Cu602   2.073       .  S
N60          C61   1.347       .  A
C61          C62   1.383       .  A
C61          H64   1.082       .  S
C62         C609   1.381       .  A
C62         C376   1.476       .  S
C63         N605   1.345       .  A
C63         C608   1.381       .  A
C63          H65   1.083       .  S
N66          N67   1.325       .  A
N66          C70   1.344       .  A
N67          C68   1.351       .  A
C68          C69   1.388       .  A
C68          H71   1.080       .  S
C69          C70   1.380       .  A
C69         C387   1.484       .  S
C70          H72   1.082       .  S
N73          N74   1.323       .  A
N73          C77   1.352       .  A
N73         Cu81   2.119   1_554  S
N74          C75   1.344       .  A
N74         Cu80   2.071   1_554  S
C75          C76   1.384       .  A
C75          H78   1.080       .  S
C76          C77   1.396       .  A
C76         C336   1.500       .  S
C77          H79   1.083       .  S
Cu80         N83   2.070       .  S
Cu81        N637   2.119       .  S
Cu82         N84   2.074       .  S
Cu82         N90   2.076       .  S
N83         N630   1.321       .  A
N83          C87   1.344       .  A
N84         N629   1.321       .  A
N84          C85   1.347       .  A
C85         C632   1.385       .  A
C85          H88   1.082       .  S
C86          C87   1.383       .  A
C86         C631   1.385       .  A
C86         C307   1.479       .  S
C87          H89   1.084       .  S
N90          N91   1.325       .  A
N90          C94   1.344       .  A
N91          C92   1.355       .  A
N91        Cu627   2.119       .  S
C92          C93   1.393       .  A
C92          H95   1.081       .  S
C93          C94   1.382       .  A
C93         C356   1.494       .  S
C94          H96   1.083       .  S
N97          N98   1.322       .  A
N97         C101   1.351       .  A
N97        Cu105   2.102       .  S
N98          C99   1.346       .  A
N98        Cu104   2.071       .  S
C99         C100   1.383       .  A
C99         H102   1.082       .  S
C100        C101   1.392       .  A
C100        C296   1.491       .  S
C101        H103   1.075       .  S
Cu104       N107   2.067       .  S
Cu105       N661   2.102       .  S
Cu106       N108   2.073       .  S
Cu106       N114   2.076       .  S
N107        N654   1.318       .  A
N107        C111   1.342       .  A
N108        N653   1.318       .  A
N108        C109   1.345       .  A
C109        C110   1.391       .  A
C109        H112   1.080       .  S
C110        C657   1.389       .  A
C110        C247   1.495       .  S
C111        C656   1.389       .  A
C111        H113   1.078       .  S
N114        N115   1.324       .  A
N114        C118   1.345       .  A
N115        C116   1.351       .  A
N115       Cu651   2.102       .  S
C116        C117   1.388       .  A
C116        H119   1.082       .  S
C117        C118   1.381       .  A
C117        C267   1.485       .  S
C118        H120   1.084       .  S
N121        N122   1.323       .  A
N121        C125   1.352       .  A
N121       Cu675   2.108       .  S
N122        C123   1.348       .  A
N122       Cu128   2.089   1_554  S
C123        C124   1.388       .  A
C123        H126   1.080       .  S
C124        C125   1.393       .  A
C124        C207   1.500       .  S
C125        H127   1.080       .  S
Cu128       N131   2.085       .  S
Cu129       N139   2.107       .  S
Cu129       N667   2.108       .  S
Cu130       N132   2.074       .  S
Cu130       N138   2.076       .  S
N131        N678   1.318       .  A
N131        C135   1.345       .  A
N132        N677   1.318       .  A
N132        C133   1.344       .  A
C133        C134   1.393       .  A
C133        H136   1.081       .  S
C134        C681   1.394       .  A
C134        C187   1.504       .  S
C135        C680   1.394       .  A
C135        H137   1.078       .  S
N138        N139   1.323       .  A
N138        C142   1.345       .  A
N139        C140   1.352       .  A
C140        C141   1.391       .  A
C140        H143   1.079       .  S
C141        C142   1.382       .  A
C141        C227   1.489       .  S
C142        H144   1.082       .  S
C145        C146   1.450   1_455  A
C145        C150   1.450       .  A
C145        C427   1.530       .  S
C146        C147   1.431   1_545  A
C146        C496   1.527       .  S
C147        C148   1.425       .  A
C147        C196   1.512       .  S
C148        C149   1.428   1_655  A
C148        C256   1.504       .  S
C149        C150   1.445   1_565  A
C149        C316   1.527       .  S
C150        C367   1.528       .  S
C151        C152   1.529       .  S
C151        C157   1.540       .  S
C151        C155   1.542       .  S
C151        C476   1.557       .  S
C152        H159   1.086       .  S
C152        C153   1.367   1_455  D
C153        C154   1.558       .  S
C153        C507   1.508       .  S
C154        C158   1.559       .  S
C154        C156   1.553   1_655  S
C154        H160   1.108       .  S
C155        H161   1.075       .  S
C155        C156   1.366       .  D
C156        C327   1.513       .  S
C157        H162   1.086       .  S
C157        C158   1.370   1_455  D
C158        C287   1.506       .  S
C163        C164   1.540       .  S
C163        C169   1.536       .  S
C163        C167   1.549       .  S
C163        C216   1.570       .  S
C164        H171   1.085       .  S
C164        C165   1.361       .  D
C165        C166   1.550   1_565  S
C165        C347   1.503       .  S
C166        C170   1.556       .  S
C166        C168   1.554       .  S
C166        H172   1.107       .  S
C167        H173   1.085   1_565  S
C167        C168   1.378   1_565  D
C168        C396   1.510       .  S
C169        H174   1.086   1_565  S
C169        C170   1.373   1_565  D
C170        C536   1.521       .  S
C175        C176   1.538       .  S
C175        C181   1.526       .  S
C175        C179   1.554       .  S
C175        C447   1.561       .  S
C176        H183   1.084       .  S
C176        C177   1.372       .  D
C177        C178   1.555       .  S
C177        C416   1.525       .  S
C178        C182   1.569       .  S
C178        C180   1.543       .  S
C178        H184   1.101       .  S
C179        H185   1.079       .  S
C179        C180   1.373       .  D
C180        C236   1.517       .  S
C181        H186   1.087       .  S
C181        C182   1.359       .  D
C182        C276   1.495       .  S
C187        C188   1.423       .  A
C187        C738   1.424       .  A
C188        C189   1.411       .  A
C188       Br200   1.932       .  S
C189        C190   1.406       .  A
C189       Br204   1.927       .  S
C190        C737   1.405       .  A
C190        C193   1.490       .  S
C191        C192   1.407       .  A
C191        C736   1.405       .  A
C191       Br199   1.935       .  S
C192        C733   1.424       .  A
C192       Br203   1.931       .  S
C193        C198   1.406       .  A
C193        C740   1.407       .  A
C194        C195   1.404       .  A
C194        C739   1.407       .  A
C194       Br205   1.937   1_556  S
C195        C196   1.416       .  A
C195       Br201   1.913   1_556  S
C196        C743   1.424       .  A
C197        C198   1.413       .  A
C197        C742   1.424       .  A
C197       Br206   1.935       .  S
C198       Br202   1.930       .  S
C207        C208   1.416       .  A
C207        C212   1.417       .  A
C208        C209   1.415       .  A
C208       Br220   1.929       .  S
C209        C210   1.410       .  A
C209       Br224   1.928       .  S
C210        C211   1.412       .  A
C210        C213   1.503       .  S
C211        C212   1.414       .  A
C211       Br219   1.931       .  S
C212       Br223   1.931       .  S
C213        C214   1.406       .  A
C213        C218   1.405       .  A
C214        C215   1.418       .  A
C214       Br225   1.933       .  S
C215        C216   1.428       .  A
C215       Br221   1.922   1_565  S
C216        C217   1.433       .  A
C217        C218   1.415       .  A
C217       Br226   1.937       .  S
C218       Br222   1.933       .  S
C227        C228   1.413       .  A
C227        C232   1.412       .  A
C228        C229   1.412       .  A
C228       Br240   1.929       .  S
C229        C230   1.410       .  A
C229       Br244   1.930       .  S
C230        C231   1.410       .  A
C230        C233   1.494       .  S
C231        C232   1.411       .  A
C231       Br239   1.930       .  S
C232       Br243   1.928       .  S
C233        C234   1.403       .  A
C233        C238   1.408       .  A
C234        C235   1.409       .  A
C234       Br245   1.933       .  S
C235        C236   1.421       .  A
C235       Br241   1.920       .  S
C236        C237   1.423       .  A
C237        C238   1.416       .  A
C237       Br246   1.925       .  S
C238       Br242   1.931       .  S
C247        C252   1.421       .  A
C247        C794   1.419       .  A
C248        C249   1.403       .  A
C248        C793   1.419       .  A
C248       Br260   1.934       .  S
C249        C796   1.409       .  A
C249       Br264   1.936       .  S
C250        C251   1.408       .  A
C250        C795   1.409       .  A
C250        C253   1.488       .  S
C251        C252   1.410       .  A
C251       Br259   1.930       .  S
C252       Br263   1.931       .  S
C253        C254   1.408       .  A
C253        C804   1.408   1_554  A
C254        C255   1.411       .  A
C254       Br265   1.932       .  S
C255        C256   1.422   1_554  A
C255       Br261   1.935       .  S
C256        C803   1.414       .  A
C257        C258   1.403       .  A
C257        C802   1.414       .  A
C257       Br266   1.915       .  S
C258        C799   1.408       .  A
C258       Br262   1.936       .  S
C267        C268   1.412       .  A
C267        C272   1.409       .  A
C268        C269   1.413       .  A
C268       Br280   1.928       .  S
C269        C270   1.410       .  A
C269       Br284   1.928       .  S
C270        C271   1.412       .  A
C270        C273   1.495       .  S
C271        C272   1.410       .  A
C271       Br279   1.930       .  S
C272       Br283   1.929       .  S
C273        C274   1.409       .  A
C273        C278   1.409       .  A
C274        C275   1.412       .  A
C274       Br285   1.929       .  S
C275        C276   1.414       .  A
C275       Br281   1.928       .  S
C276        C277   1.416       .  A
C277        C278   1.411       .  A
C277       Br286   1.934       .  S
C278       Br282   1.930       .  S
C287        C288   1.418       .  A
C287        C292   1.415       .  A
C288        C289   1.412       .  A
C288       Br300   1.923       .  S
C289        C290   1.407       .  A
C289       Br304   1.931       .  S
C290        C291   1.408       .  A
C290        C293   1.495       .  S
C291        C292   1.413       .  A
C291       Br299   1.931       .  S
C292       Br303   1.919       .  S
C293        C294   1.409       .  A
C293        C298   1.410       .  A
C294        C295   1.411       .  A
C294       Br305   1.930       .  S
C295        C296   1.414       .  A
C295       Br301   1.929       .  S
C296        C297   1.415       .  A
C297        C298   1.412       .  A
C297       Br306   1.931       .  S
C298       Br302   1.930       .  S
C307        C308   1.412       .  A
C307        C858   1.410       .  A
C308        C309   1.407       .  A
C308       Br320   1.931       .  S
C309        C310   1.409       .  A
C309       Br324   1.929       .  S
C310        C857   1.410       .  A
C310        C313   1.485       .  S
C311        C312   1.407       .  A
C311        C856   1.410       .  A
C311       Br319   1.931       .  S
C312        C853   1.410       .  A
C312       Br323   1.929       .  S
C313        C314   1.401       .  A
C313        C864   1.401       .  A
C314        C315   1.411       .  A
C314       Br325   1.943   1_556  S
C315        C316   1.435       .  A
C315       Br321   1.918   1_556  S
C316        C863   1.421       .  A
C317        C318   1.407       .  A
C317        C862   1.421       .  A
C317       Br326   1.924       .  S
C318        C859   1.401       .  A
C318       Br322   1.930       .  S
C327        C328   1.420       .  A
C327        C332   1.424       .  A
C328        C329   1.414       .  A
C328       Br340   1.923   1_455  S
C329        C330   1.409       .  A
C329       Br344   1.933       .  S
C330        C331   1.408       .  A
C330        C333   1.499       .  S
C331        C332   1.412       .  A
C331       Br339   1.932       .  S
C332       Br343   1.937       .  S
C333        C334   1.411       .  A
C333        C338   1.409       .  A
C334        C335   1.413       .  A
C334       Br345   1.931       .  S
C335        C336   1.416       .  A
C335       Br341   1.930       .  S
C336        C337   1.420       .  A
C337        C338   1.413       .  A
C337       Br346   1.932       .  S
C338       Br342   1.932       .  S
C347        C348   1.413       .  A
C347        C352   1.418       .  A
C348        C349   1.416       .  A
C348       Br360   1.926       .  S
C349        C350   1.413       .  A
C349       Br364   1.929       .  S
C350        C351   1.410       .  A
C350        C353   1.502       .  S
C351        C352   1.411       .  A
C351       Br359   1.931       .  S
C352       Br363   1.935       .  S
C353        C354   1.414       .  A
C353        C358   1.411       .  A
C354        C355   1.415       .  A
C354       Br365   1.929       .  S
C355        C356   1.413       .  A
C355       Br361   1.928       .  S
C356        C357   1.413       .  A
C357        C358   1.412       .  A
C357       Br366   1.930       .  S
C358       Br362   1.929       .  S
C367        C368   1.426   1_556  A
C367        C918   1.427       .  A
C368        C369   1.409       .  A
C368       Br380   1.924       .  S
C369        C370   1.403       .  A
C369       Br384   1.933       .  S
C370        C917   1.403   1_554  A
C370        C373   1.490       .  S
C371        C372   1.410       .  A
C371        C916   1.403       .  A
C371       Br379   1.937       .  S
C372        C913   1.427       .  A
C372       Br383   1.912       .  S
C373        C374   1.412       .  A
C373        C378   1.412   1_554  A
C374        C375   1.407       .  A
C374       Br385   1.930       .  S
C375        C376   1.408       .  A
C375       Br381   1.929       .  S
C376        C377   1.408   1_554  A
C377        C378   1.408       .  A
C377       Br386   1.929       .  S
C378       Br382   1.929       .  S
C387        C388   1.411       .  A
C387        C392   1.411       .  A
C388        C389   1.412       .  A
C388       Br400   1.928       .  S
C389        C390   1.411       .  A
C389       Br404   1.928       .  S
C390        C391   1.409       .  A
C390        C393   1.492       .  S
C391        C392   1.409       .  A
C391       Br399   1.930       .  S
C392       Br403   1.930       .  S
C393        C394   1.405       .  A
C393        C398   1.407       .  A
C394        C395   1.410       .  A
C394       Br405   1.930       .  S
C395        C396   1.418       .  A
C395       Br401   1.925       .  S
C396        C397   1.419       .  A
C397        C398   1.413       .  A
C397       Br406   1.919       .  S
C398       Br402   1.932       .  S
C407        C408   1.412       .  A
C407        C412   1.411       .  A
C408        C409   1.409       .  A
C408       Br420   1.930       .  S
C409        C410   1.410       .  A
C409       Br424   1.929       .  S
C410        C411   1.412       .  A
C410        C413   1.495       .  S
C411        C412   1.413       .  A
C411       Br419   1.928       .  S
C412       Br423   1.928       .  S
C413        C414   1.405       .  A
C413        C418   1.403       .  A
C414        C415   1.417       .  A
C414       Br425   1.932       .  S
C415        C416   1.428       .  A
C415       Br421   1.925       .  S
C416        C417   1.432       .  A
C417        C418   1.411       .  A
C417       Br426   1.934       .  S
C418       Br422   1.937       .  S
C427        C432   1.430   1_556  A
C427        C974   1.426       .  A
C428        C429   1.410       .  A
C428        C973   1.426       .  A
C428       Br440   1.926       .  S
C429        C976   1.403       .  A
C429       Br444   1.932       .  S
C430        C431   1.401   1_556  A
C430        C975   1.403       .  A
C430        C433   1.489       .  S
C431        C432   1.411       .  A
C431       Br439   1.938       .  S
C432       Br443   1.914       .  S
C433        C438   1.410   1_556  A
C433        C980   1.409       .  A
C434        C435   1.408       .  A
C434        C979   1.409       .  A
C434       Br445   1.929       .  S
C435        C982   1.412       .  A
C435       Br441   1.930       .  S
C436        C437   1.412   1_556  A
C436        C981   1.412       .  A
C437        C438   1.409       .  A
C437       Br446   1.931       .  S
C438       Br442   1.928       .  S
C447        C448   1.431       .  A
C447        C452   1.429       .  A
C448        C449   1.413       .  A
C448       Br460   1.936       .  S
C449        C450   1.405       .  A
C449       Br464   1.933       .  S
C450        C451   1.402       .  A
C450        C453   1.492       .  S
C451        C452   1.410       .  A
C451       Br459   1.934       .  S
C452       Br463   1.926       .  S
C453        C454   1.410       .  A
C453        C458   1.409       .  A
C454        C455   1.413       .  A
C454       Br465   1.928       .  S
C455        C456   1.413       .  A
C455       Br461   1.928       .  S
C456        C457   1.415       .  A
C457        C458   1.407       .  A
C457       Br466   1.932       .  S
C458       Br462   1.932       .  S
C467        C468   1.413       .  A
C467        C472   1.413       .  A
C468        C469   1.407       .  A
C468       Br480   1.932       .  S
C469        C470   1.410       .  A
C469       Br484   1.932       .  S
C470        C471   1.410       .  A
C470        C473   1.491       .  S
C471        C472   1.413       .  A
C471       Br479   1.929       .  S
C472       Br483   1.927       .  S
C473        C474   1.404       .  A
C473        C478   1.405       .  A
C474        C475   1.409       .  A
C474       Br485   1.930       .  S
C475        C476   1.428       .  A
C475       Br481   1.935       .  S
C476        C477   1.427       .  A
C477        C478   1.411       .  A
C477       Br486   1.927   1_455  S
C478       Br482   1.935       .  S
C487        C488   1.411       .  A
C487       C1038   1.411       .  A
C488        C489   1.405       .  A
C488       Br500   1.930       .  S
C489        C490   1.409       .  A
C489       Br504   1.932       .  S
C490       C1037   1.410       .  A
C490        C493   1.482       .  S
C491        C492   1.406       .  A
C491       C1036   1.410       .  A
C491       Br499   1.929       .  S
C492       C1033   1.411       .  A
C492       Br503   1.931       .  S
C493        C494   1.400       .  A
C493       C1044   1.400   1_554  A
C494        C495   1.406       .  A
C494       Br505   1.931       .  S
C495        C496   1.422   1_554  A
C495       Br501   1.922       .  S
C496       C1043   1.435       .  A
C497        C498   1.409       .  A
C497       C1042   1.435       .  A
C497       Br506   1.915       .  S
C498       C1039   1.400       .  A
C498       Br502   1.944       .  S
C507        C508   1.422       .  A
C507        C512   1.419       .  A
C508        C509   1.408       .  A
C508       Br520   1.937   1_655  S
C509        C510   1.406       .  A
C509       Br524   1.932       .  S
C510        C511   1.408       .  A
C510        C513   1.493       .  S
C511        C512   1.415       .  A
C511       Br519   1.930       .  S
C512       Br523   1.924       .  S
C513        C514   1.411       .  A
C513        C518   1.409       .  A
C514        C515   1.413       .  A
C514       Br525   1.929       .  S
C515        C516   1.412       .  A
C515       Br521   1.927       .  S
C516        C517   1.413       .  A
C517        C518   1.409       .  A
C517       Br526   1.931       .  S
C518       Br522   1.930       .  S
C527        C528   1.410       .  A
C527        C532   1.410       .  A
C528        C529   1.414       .  A
C528       Br540   1.929       .  S
C529        C530   1.414       .  A
C529       Br544   1.928       .  S
C530        C531   1.412       .  A
C530        C533   1.502       .  S
C531        C532   1.412       .  A
C531       Br539   1.928       .  S
C532       Br543   1.929       .  S
C533        C534   1.407       .  A
C533        C538   1.408       .  A
C534        C535   1.417       .  A
C534       Br545   1.933       .  S
C535        C536   1.426       .  A
C535       Br541   1.924       .  S
C536        C537   1.424       .  A
C537        C538   1.414       .  A
C537       Br546   1.934   1_545  S
C538       Br542   1.932       .  S
N547        N548   1.325       .  A
N547        C551   1.355       .  A
N547       Cu555   2.118       .  S
N548        C549   1.342       .  A
N548       Cu554   2.068       .  S
C549        C550   1.379       .  A
C549        H552   1.083       .  S
C550        C551   1.393       .  A
C550       C1062   1.488       .  S
C551        H553   1.079       .  S
Cu554       N557   2.066       .  S
Cu556       N558   2.065   1_556  S
Cu556       N564   2.067       .  S
N557        C561   1.346       .  A
N558        C559   1.343       .  A
C559        H562   1.083   1_554  S
C560        C561   1.384       .  A
C560       C1033   1.476       .  S
C561        H563   1.080       .  S
N564        N565   1.324       .  A
N564        C568   1.343       .  A
N565        C566   1.354       .  A
C566        C567   1.392       .  A
C566        H569   1.080       .  S
C567        C568   1.378       .  A
C567       C1073   1.487       .  S
C568        H570   1.088       .  S
N571        N572   1.325       .  A
N571        C575   1.354       .  A
N572        C573   1.342       .  A
N572       Cu578   2.073       .  S
C573        C574   1.380       .  A
C573        H576   1.078       .  S
C574        C575   1.391       .  A
C574       C1013   1.487       .  S
C575        H577   1.078       .  S
Cu578       N581   2.073       .  S
Cu579       N589   2.110       .  S
Cu580       N582   2.065       .  S
Cu580       N588   2.065       .  S
N581        C585   1.346       .  A
N582        C583   1.344       .  A
C583        C584   1.384       .  A
C583        H586   1.082       .  S
C584        C982   1.482       .  S
C585        H587   1.082       .  S
N588        N589   1.324       .  A
N588        C592   1.341       .  A
N589        C590   1.354       .  A
C590        C591   1.393       .  A
C590        H593   1.077       .  S
C591        C592   1.379       .  A
C591       C1002   1.488       .  S
C592        H594   1.080       .  S
N595        N596   1.324   1_554  A
N595        C599   1.353   1_554  A
N596        C597   1.343       .  A
N596       Cu602   2.074   1_556  S
C597        C598   1.381       .  A
C597        H600   1.083       .  S
C598        C599   1.390       .  A
C598        C953   1.487       .  S
C599        H601   1.078       .  S
Cu603       N613   2.105       .  S
Cu604       N606   2.075       .  S
Cu604       N612   2.076       .  S
N605        N606   1.321       .  A
N606        C607   1.347       .  A
C607        C608   1.383       .  A
C607        H610   1.082       .  S
C608        C922   1.476       .  S
C609        H611   1.083   1_554  S
N612        N613   1.325       .  A
N612        C616   1.344       .  A
N613        C614   1.351       .  A
C614        C615   1.388       .  A
C614        H617   1.080       .  S
C615        C616   1.380       .  A
C615        C933   1.484       .  S
C616        H618   1.082       .  S
N619        N620   1.323       .  A
N619        C623   1.352       .  A
N619       Cu627   2.119       .  S
N620        C621   1.344       .  A
N620       Cu626   2.071       .  S
C621        C622   1.384       .  A
C621        H624   1.080       .  S
C622        C623   1.396       .  A
C622        C882   1.500       .  S
C623        H625   1.083       .  S
Cu626       N629   2.070       .  S
Cu628       N630   2.074       .  S
Cu628       N636   2.076       .  S
N629        C633   1.344       .  A
N630        C631   1.347       .  A
C631        H634   1.082       .  S
C632        C633   1.383       .  A
C632        C853   1.479       .  S
C633        H635   1.084       .  S
N636        N637   1.325       .  A
N636        C640   1.344       .  A
N637        C638   1.355       .  A
C638        C639   1.393       .  A
C638        H641   1.081       .  S
C639        C640   1.382       .  A
C639        C902   1.494       .  S
C640        H642   1.083       .  S
N643        N644   1.322       .  A
N643        C647   1.351       .  A
N643       Cu651   2.102   1_556  S
N644        C645   1.346       .  A
N644       Cu650   2.071   1_556  S
C645        C646   1.383       .  A
C645        H648   1.082       .  S
C646        C647   1.392       .  A
C646        C842   1.491       .  S
C647        H649   1.075       .  S
Cu650       N653   2.067       .  S
Cu652       N654   2.073       .  S
Cu652       N660   2.076       .  S
N653        C657   1.342       .  A
N654        C655   1.345       .  A
C655        C656   1.391       .  A
C655        H658   1.080       .  S
C656        C793   1.495       .  S
C657        H659   1.078       .  S
N660        N661   1.324       .  A
N660        C664   1.345       .  A
N661        C662   1.351       .  A
C662        C663   1.388       .  A
C662        H665   1.082       .  S
C663        C664   1.381       .  A
C663        C813   1.485       .  S
C664        H666   1.084       .  S
N667        N668   1.323       .  A
N667        C671   1.352       .  A
N668        C669   1.348       .  A
N668       Cu674   2.089       .  S
C669        C670   1.388       .  A
C669        H672   1.080       .  S
C670        C671   1.393       .  A
C670        C753   1.500       .  S
C671        H673   1.080       .  S
Cu674       N677   2.085       .  S
Cu675       N685   2.107   1_554  S
Cu676       N678   2.074       .  S
Cu676       N684   2.076       .  S
N677        C681   1.345       .  A
N678        C679   1.344       .  A
C679        C680   1.393       .  A
C679        H682   1.082       .  S
C680        C733   1.504       .  S
C681        H683   1.078       .  S
N684        N685   1.323       .  A
N684        C688   1.345       .  A
N685        C686   1.352       .  A
C686        C687   1.391       .  A
C686        H689   1.079       .  S
C687        C688   1.382       .  A
C687        C773   1.489       .  S
C688        H690   1.082       .  S
C691        C692   1.450   1_455  A
C691        C696   1.450       .  A
C691        C973   1.530       .  S
C692        C693   1.431   1_545  A
C692       C1042   1.527       .  S
C693        C694   1.425       .  A
C693        C742   1.512       .  S
C694        C695   1.428   1_655  A
C694        C802   1.504       .  S
C695        C696   1.445   1_565  A
C695        C862   1.527       .  S
C696        C913   1.528       .  S
C697        C698   1.529       .  S
C697        C703   1.540       .  S
C697        C701   1.542       .  S
C697       C1022   1.557       .  S
C698        H705   1.086       .  S
C698        C699   1.367   1_455  D
C699        C700   1.558       .  S
C699       C1053   1.508       .  S
C700        C704   1.559       .  S
C700        C702   1.553   1_655  S
C700        H706   1.108       .  S
C701        H707   1.075       .  S
C701        C702   1.366       .  D
C702        C873   1.513       .  S
C703        H708   1.086       .  S
C703        C704   1.370   1_455  D
C704        C833   1.506       .  S
C709        C710   1.540       .  S
C709        C715   1.536       .  S
C709        C713   1.549       .  S
C709        C762   1.570       .  S
C710        H717   1.085       .  S
C710        C711   1.361       .  D
C711        C712   1.550   1_565  S
C711        C893   1.503       .  S
C712        C716   1.556       .  S
C712        C714   1.554       .  S
C712        H718   1.107       .  S
C713        H719   1.085   1_565  S
C713        C714   1.378   1_565  D
C714        C942   1.510       .  S
C715        H720   1.086   1_565  S
C715        C716   1.373   1_565  D
C716       C1082   1.521       .  S
C721        C722   1.538       .  S
C721        C727   1.526       .  S
C721        C725   1.554       .  S
C721        C993   1.561       .  S
C722        H729   1.084       .  S
C722        C723   1.372       .  D
C723        C724   1.555       .  S
C723        C962   1.525       .  S
C724        C728   1.569       .  S
C724        C726   1.543       .  S
C724        H730   1.101       .  S
C725        H731   1.079       .  S
C725        C726   1.373       .  D
C726        C782   1.517       .  S
C727        H732   1.087       .  S
C727        C728   1.359       .  D
C728        C822   1.495       .  S
C733        C734   1.423       .  A
C734        C735   1.411       .  A
C734       Br746   1.932       .  S
C735        C736   1.406       .  A
C735       Br750   1.927       .  S
C736        C739   1.490       .  S
C737        C738   1.407       .  A
C737       Br745   1.935       .  S
C738       Br749   1.931       .  S
C739        C744   1.406       .  A
C740        C741   1.404       .  A
C740       Br751   1.937       .  S
C741        C742   1.416       .  A
C741       Br747   1.913       .  S
C743        C744   1.413       .  A
C743       Br752   1.935       .  S
C744       Br748   1.930       .  S
C753        C754   1.416       .  A
C753        C758   1.417       .  A
C754        C755   1.415       .  A
C754       Br766   1.929       .  S
C755        C756   1.410       .  A
C755       Br770   1.928       .  S
C756        C757   1.412       .  A
C756        C759   1.503       .  S
C757        C758   1.414       .  A
C757       Br765   1.931       .  S
C758       Br769   1.931       .  S
C759        C760   1.406       .  A
C759        C764   1.405       .  A
C760        C761   1.418       .  A
C760       Br771   1.933       .  S
C761        C762   1.428       .  A
C761       Br767   1.922   1_565  S
C762        C763   1.433       .  A
C763        C764   1.415       .  A
C763       Br772   1.937       .  S
C764       Br768   1.933       .  S
C773        C774   1.413       .  A
C773        C778   1.412       .  A
C774        C775   1.412       .  A
C774       Br786   1.929       .  S
C775        C776   1.410       .  A
C775       Br790   1.930       .  S
C776        C777   1.410       .  A
C776        C779   1.494       .  S
C777        C778   1.411       .  A
C777       Br785   1.930       .  S
C778       Br789   1.928       .  S
C779        C780   1.403       .  A
C779        C784   1.408       .  A
C780        C781   1.409       .  A
C780       Br791   1.933       .  S
C781        C782   1.421       .  A
C781       Br787   1.920       .  S
C782        C783   1.423       .  A
C783        C784   1.416       .  A
C783       Br792   1.925       .  S
C784       Br788   1.931       .  S
C793        C798   1.421       .  A
C794        C795   1.403       .  A
C794       Br806   1.934   1_554  S
C795       Br810   1.936       .  S
C796        C797   1.408       .  A
C796        C799   1.488       .  S
C797        C798   1.410       .  A
C797       Br805   1.930       .  S
C798       Br809   1.931       .  S
C799        C800   1.408       .  A
C800        C801   1.411       .  A
C800       Br811   1.932       .  S
C801        C802   1.422       .  A
C801       Br807   1.935       .  S
C803        C804   1.403       .  A
C803       Br812   1.915       .  S
C804       Br808   1.936       .  S
C813        C814   1.412       .  A
C813        C818   1.409       .  A
C814        C815   1.413       .  A
C814       Br826   1.928       .  S
C815        C816   1.410       .  A
C815       Br830   1.928       .  S
C816        C817   1.412       .  A
C816        C819   1.495       .  S
C817        C818   1.410       .  A
C817       Br825   1.930       .  S
C818       Br829   1.929       .  S
C819        C820   1.409       .  A
C819        C824   1.409       .  A
C820        C821   1.412       .  A
C820       Br831   1.929       .  S
C821        C822   1.414       .  A
C821       Br827   1.928       .  S
C822        C823   1.416       .  A
C823        C824   1.411       .  A
C823       Br832   1.934       .  S
C824       Br828   1.930       .  S
C833        C834   1.418       .  A
C833        C838   1.415       .  A
C834        C835   1.412       .  A
C834       Br846   1.923       .  S
C835        C836   1.407       .  A
C835       Br850   1.931       .  S
C836        C837   1.408       .  A
C836        C839   1.495       .  S
C837        C838   1.413       .  A
C837       Br845   1.931       .  S
C838       Br849   1.919       .  S
C839        C840   1.409       .  A
C839        C844   1.410       .  A
C840        C841   1.411       .  A
C840       Br851   1.930       .  S
C841        C842   1.414       .  A
C841       Br847   1.929       .  S
C842        C843   1.415       .  A
C843        C844   1.412       .  A
C843       Br852   1.931       .  S
C844       Br848   1.930       .  S
C853        C854   1.412       .  A
C854        C855   1.407       .  A
C854       Br866   1.931       .  S
C855        C856   1.409       .  A
C855       Br870   1.929       .  S
C856        C859   1.485       .  S
C857        C858   1.407       .  A
C857       Br865   1.931       .  S
C858       Br869   1.929       .  S
C859        C860   1.401       .  A
C860        C861   1.411       .  A
C860       Br871   1.943       .  S
C861        C862   1.435       .  A
C861       Br867   1.918       .  S
C863        C864   1.407       .  A
C863       Br872   1.924       .  S
C864       Br868   1.930       .  S
C873        C874   1.420       .  A
C873        C878   1.424       .  A
C874        C875   1.414       .  A
C874       Br886   1.923   1_455  S
C875        C876   1.409       .  A
C875       Br890   1.933       .  S
C876        C877   1.408       .  A
C876        C879   1.499       .  S
C877        C878   1.412       .  A
C877       Br885   1.932       .  S
C878       Br889   1.937       .  S
C879        C880   1.411       .  A
C879        C884   1.409       .  A
C880        C881   1.413       .  A
C880       Br891   1.931       .  S
C881        C882   1.416       .  A
C881       Br887   1.930       .  S
C882        C883   1.420       .  A
C883        C884   1.413       .  A
C883       Br892   1.932       .  S
C884       Br888   1.932       .  S
C893        C894   1.413       .  A
C893        C898   1.418       .  A
C894        C895   1.416       .  A
C894       Br906   1.926       .  S
C895        C896   1.413       .  A
C895       Br910   1.929       .  S
C896        C897   1.410       .  A
C896        C899   1.502       .  S
C897        C898   1.411       .  A
C897       Br905   1.931       .  S
C898       Br909   1.935       .  S
C899        C900   1.414       .  A
C899        C904   1.411       .  A
C900        C901   1.415       .  A
C900       Br911   1.929       .  S
C901        C902   1.413       .  A
C901       Br907   1.928       .  S
C902        C903   1.413       .  A
C903        C904   1.412       .  A
C903       Br912   1.930       .  S
C904       Br908   1.929       .  S
C913        C914   1.426       .  A
C914        C915   1.409       .  A
C914       Br926   1.924       .  S
C915        C916   1.403       .  A
C915       Br930   1.933       .  S
C916        C919   1.490       .  S
C917        C918   1.410       .  A
C917       Br925   1.937       .  S
C918       Br929   1.912       .  S
C919        C920   1.412       .  A
C919        C924   1.412       .  A
C920        C921   1.407       .  A
C920       Br931   1.930       .  S
C921        C922   1.408       .  A
C921       Br927   1.929       .  S
C922        C923   1.408       .  A
C923        C924   1.408       .  A
C923       Br932   1.929       .  S
C924       Br928   1.929       .  S
C933        C934   1.411       .  A
C933        C938   1.411       .  A
C934        C935   1.412       .  A
C934       Br946   1.928       .  S
C935        C936   1.411       .  A
C935       Br950   1.928       .  S
C936        C937   1.409       .  A
C936        C939   1.492       .  S
C937        C938   1.409       .  A
C937       Br945   1.930       .  S
C938       Br949   1.930       .  S
C939        C940   1.405       .  A
C939        C944   1.407       .  A
C940        C941   1.410       .  A
C940       Br951   1.930       .  S
C941        C942   1.418       .  A
C941       Br947   1.925       .  S
C942        C943   1.419       .  A
C943        C944   1.413       .  A
C943       Br952   1.919       .  S
C944       Br948   1.932       .  S
C953        C954   1.412       .  A
C953        C958   1.411       .  A
C954        C955   1.409       .  A
C954       Br966   1.930       .  S
C955        C956   1.410       .  A
C955       Br970   1.929       .  S
C956        C957   1.412       .  A
C956        C959   1.495       .  S
C957        C958   1.413       .  A
C957       Br965   1.928       .  S
C958       Br969   1.928   1_556  S
C959        C960   1.405       .  A
C959        C964   1.403       .  A
C960        C961   1.417       .  A
C960       Br971   1.932       .  S
C961        C962   1.428       .  A
C961       Br967   1.925       .  S
C962        C963   1.432       .  A
C963        C964   1.411       .  A
C963       Br972   1.934       .  S
C964       Br968   1.937       .  S
C973        C978   1.430       .  A
C974        C975   1.410       .  A
C974       Br986   1.926       .  S
C975       Br990   1.932       .  S
C976        C977   1.401       .  A
C976        C979   1.489       .  S
C977        C978   1.411       .  A
C977       Br985   1.938       .  S
C978       Br989   1.914       .  S
C979        C984   1.410       .  A
C980        C981   1.408       .  A
C980       Br991   1.929       .  S
C981       Br987   1.930       .  S
C982        C983   1.412       .  A
C983        C984   1.409       .  A
C983       Br992   1.931       .  S
C984       Br988   1.928       .  S
C993        C994   1.431       .  A
C993        C998   1.429       .  A
C994        C995   1.413       .  A
C994      Br1006   1.936       .  S
C995        C996   1.405       .  A
C995      Br1010   1.933       .  S
C996        C997   1.402       .  A
C996        C999   1.492       .  S
C997        C998   1.410       .  A
C997      Br1005   1.934       .  S
C998      Br1009   1.926       .  S
C999       C1000   1.410       .  A
C999       C1004   1.409       .  A
C1000      C1001   1.413       .  A
C1000     Br1011   1.928       .  S
C1001      C1002   1.413       .  A
C1001     Br1007   1.928       .  S
C1002      C1003   1.415       .  A
C1003      C1004   1.407       .  A
C1003     Br1012   1.932       .  S
C1004     Br1008   1.932       .  S
C1013      C1014   1.413       .  A
C1013      C1018   1.413       .  A
C1014      C1015   1.407       .  A
C1014     Br1026   1.932       .  S
C1015      C1016   1.410       .  A
C1015     Br1030   1.932       .  S
C1016      C1017   1.410       .  A
C1016      C1019   1.491       .  S
C1017      C1018   1.413       .  A
C1017     Br1025   1.929       .  S
C1018     Br1029   1.927       .  S
C1019      C1020   1.404       .  A
C1019      C1024   1.405       .  A
C1020      C1021   1.409       .  A
C1020     Br1031   1.930       .  S
C1021      C1022   1.428       .  A
C1021     Br1027   1.935       .  S
C1022      C1023   1.427       .  A
C1023      C1024   1.411       .  A
C1023     Br1032   1.927   1_455  S
C1024     Br1028   1.935       .  S
C1033      C1034   1.411       .  A
C1034      C1035   1.405       .  A
C1034     Br1046   1.930       .  S
C1035      C1036   1.409       .  A
C1035     Br1050   1.932       .  S
C1036      C1039   1.482       .  S
C1037      C1038   1.406       .  A
C1037     Br1045   1.929   1_554  S
C1038     Br1049   1.931   1_554  S
C1039      C1040   1.400       .  A
C1040      C1041   1.406       .  A
C1040     Br1051   1.931       .  S
C1041      C1042   1.422       .  A
C1041     Br1047   1.922       .  S
C1043      C1044   1.409       .  A
C1043     Br1052   1.915       .  S
C1044     Br1048   1.944       .  S
C1053      C1054   1.422       .  A
C1053      C1058   1.419       .  A
C1054      C1055   1.408       .  A
C1054     Br1066   1.937   1_655  S
C1055      C1056   1.406       .  A
C1055     Br1070   1.932       .  S
C1056      C1057   1.408       .  A
C1056      C1059   1.493       .  S
C1057      C1058   1.415       .  A
C1057     Br1065   1.930       .  S
C1058     Br1069   1.924       .  S
C1059      C1060   1.411       .  A
C1059      C1064   1.409       .  A
C1060      C1061   1.413       .  A
C1060     Br1071   1.929       .  S
C1061      C1062   1.412       .  A
C1061     Br1067   1.927       .  S
C1062      C1063   1.413       .  A
C1063      C1064   1.409       .  A
C1063     Br1072   1.931       .  S
C1064     Br1068   1.930       .  S
C1073      C1074   1.410       .  A
C1073      C1078   1.410       .  A
C1074      C1075   1.414       .  A
C1074     Br1086   1.929       .  S
C1075      C1076   1.414       .  A
C1075     Br1090   1.928       .  S
C1076      C1077   1.412       .  A
C1076      C1079   1.502       .  S
C1077      C1078   1.412       .  A
C1077     Br1085   1.928       .  S
C1078     Br1089   1.929       .  S
C1079      C1080   1.407       .  A
C1079      C1084   1.408       .  A
C1080      C1081   1.417       .  A
C1080     Br1091   1.933       .  S
C1081      C1082   1.426       .  A
C1081     Br1087   1.924       .  S
C1082      C1083   1.424       .  A
C1083      C1084   1.414       .  A
C1083     Br1092   1.934   1_545  S
C1084     Br1088   1.932       .  S
