geometry optimzed in LAMMPS
_audit_creation_date              2020-11-30 
_audit_creation_method            'lammps2cif' 
_symmetry_space_group_name_H-M    'P1' 
_symmetry_Int_Tables_number       1 
_symmetry_cell_setting            triclinic 
loop_ 
_symmetry_equiv_pos_as_xyz 
  x,y,z 
_cell_length_a                    44.30289599 
_cell_length_b                    44.30619202132405 
_cell_length_c                    71.1772131669489 
_cell_angle_alpha                 90.0077201549829 
_cell_angle_beta                  89.97267072570722 
_cell_angle_gamma                 89.95168700470433 
loop_ 
_atom_site_label 
_atom_site_type_symbol 
_atom_site_fract_x 
_atom_site_fract_y 
_atom_site_fract_z 
_atom_site_charge 
O1          O  0.47495785  0.49904494  0.71689654    -0.74200
O2          O  0.47494465  0.00050685  0.66049489    -0.75100
O3          O  0.47494688  0.45471125  0.68829312    -0.63800
O4          O  0.47494192  0.04527125  0.68898893    -0.72200
O5          O  0.02500982  0.04538513  0.68843724    -0.71700
O6          O  0.02499997  0.45478145  0.68886474    -0.63000
O7          O  0.02508343  0.99978246  0.66052765    -0.75500
O8          O  0.02503300  0.50082599  0.71686084    -0.74300
Cu9        Cu  0.47321642  0.49991326  0.68869407     1.04600
Cu10       Cu  0.02677071  0.00015191  0.68869328     1.04300
C11         C  0.50000651  0.49989093  0.72576753     0.92000
C12         C  0.00003187  0.00019129  0.65165931     0.91200
C13         C  0.99999639  0.44038134  0.68848210     0.83300
C14         C  0.99996321  0.05971009  0.68869925     0.89600
O15         O  0.47470182  0.24901964  0.71699150    -0.74200
O16         O  0.47476283  0.25047896  0.66058784    -0.75100
O17         O  0.47479114  0.20466781  0.68839447    -0.63800
O18         O  0.47471647  0.29527423  0.68910584    -0.72200
O19         O  0.02480199  0.29540150  0.68845294    -0.71700
O20         O  0.02487122  0.20483508  0.68911590    -0.63000
O21         O  0.02497486  0.24969678  0.66062483    -0.75500
O22         O  0.02476058  0.25101824  0.71699627    -0.74300
Cu23       Cu  0.47298996  0.24988423  0.68878015     1.04600
Cu24       Cu  0.02659447  0.25020998  0.68880946     1.04300
C25         C  0.49975557  0.24985242  0.72585931     0.92000
C26         C  0.49984660  0.25018477  0.65172792     0.91200
C27         C  0.49984398  0.19035753  0.68863371     0.83300
C28         C  0.49971414  0.30968591  0.68876077     0.89600
O29         O  0.22473643  0.00037313  0.66067250    -0.74200
O30         O  0.22506925  0.49895692  0.71707101    -0.75100
O31         O  0.22458140  0.04515179  0.68927225    -0.63800
O32         O  0.22520558  0.45458260  0.68856217    -0.72200
O33         O  0.27524060  0.45480383  0.68916548    -0.71700
O34         O  0.27461555  0.04536011  0.68861679    -0.63000
O35         O  0.27516343  0.50093820  0.71702580    -0.75500
O36         O  0.27502760  0.49971904  0.66065208    -0.74300
Cu37       Cu  0.22299790  0.99975311  0.68887656     1.04600
Cu38       Cu  0.27682822  0.50019273  0.68884809     1.04300
C39         C  0.24981169  0.00009447  0.65180180     0.92000
C40         C  0.25013074  0.49992860  0.72591270     0.91200
C41         C  0.24954183  0.05962796  0.68896926     0.83300
C42         C  0.25028584  0.44032181  0.68887139     0.89600
O43         O  0.27479593  0.20453841  0.68865821    -0.74200
O44         O  0.27521968  0.29514719  0.68897981    -0.75100
O45         O  0.27499525  0.24940659  0.71699544    -0.63800
O46         O  0.27509374  0.25006793  0.66062385    -0.72200
O47         O  0.22496726  0.24989785  0.66062083    -0.71700
O48         O  0.22493758  0.25057295  0.71699916    -0.63000
O49         O  0.22518069  0.29541016  0.68863298    -0.75500
O50         O  0.22475691  0.20482498  0.68899544    -0.74300
Cu51       Cu  0.27676897  0.24979100  0.68881259     1.04600
Cu52       Cu  0.22321970  0.25017402  0.68880981     1.04300
C53         C  0.24971067  0.19030850  0.68884924     0.92000
C54         C  0.25025701  0.30965041  0.68880835     0.91200
C55         C  0.24996149  0.24997163  0.72591898     0.83300
C56         C  0.25003902  0.25001079  0.65175022     0.89600
O57         O  0.99899864  0.47464627  0.81548448    -0.74200
O58         O  0.00047120  0.47453019  0.87188828    -0.75100
O59         O  0.45468623  0.47472221  0.84407987    -0.63800
O60         O  0.04526584  0.47450977  0.84327806    -0.72200
O61         O  0.04540359  0.02459871  0.84407145    -0.71700
O62         O  0.45484665  0.02478747  0.84334599    -0.63000
O63         O  0.99961764  0.02466343  0.87189245    -0.75500
O64         O  0.00105712  0.02474746  0.81551979    -0.74300
Cu65       Cu  0.99987035  0.47285620  0.84368349     1.04600
Cu66       Cu  0.00020203  0.02643261  0.84371027     1.04300
C67         C  0.00004363  0.49969945  0.80662462     0.92000
C68         C  0.00004521  0.49958789  0.88076657     0.91200
C69         C  0.44038042  0.49977061  0.84368483     0.83300
C70         C  0.05971232  0.49948350  0.84366655     0.89600
O71         O  0.99901451  0.22499005  0.81554669    -0.74200
O72         O  0.00039394  0.22492126  0.87193027    -0.75100
O73         O  0.45463398  0.22465963  0.84401413    -0.63800
O74         O  0.04521765  0.22480096  0.84336313    -0.72200
O75         O  0.04546348  0.27483129  0.84402677    -0.71700
O76         O  0.45488961  0.27469003  0.84336157    -0.63000
O77         O  0.99976220  0.27504114  0.87194865    -0.75500
O78         O  0.00097565  0.27507917  0.81558161    -0.74300
Cu79       Cu  0.99984452  0.22321640  0.84373127     1.04600
Cu80       Cu  0.00025029  0.27677914  0.84376366     1.04300
C81         C  0.99996027  0.25005141  0.80669569     0.92000
C82         C  0.00006648  0.24997694  0.88081298     0.91200
C83         C  0.44039016  0.24974805  0.84365212     0.83300
C84         C  0.05971132  0.24974465  0.84366160     0.89600
O85         O  0.29531442  0.47470103  0.84347931    -0.74200
O86         O  0.20472620  0.47460399  0.84388274    -0.75100
O87         O  0.24934723  0.47466572  0.81553611    -0.63800
O88         O  0.25027436  0.47460941  0.87191196    -0.72200
O89         O  0.24979891  0.02482070  0.87191168    -0.71700
O90         O  0.25076075  0.02482946  0.81555641    -0.63000
O91         O  0.20476972  0.02473543  0.84351357    -0.75500
O92         O  0.29537753  0.02483279  0.84388874    -0.74300
Cu93       Cu  0.24994293  0.47289693  0.84370717     1.04600
Cu94       Cu  0.25015049  0.02655133  0.84372294     1.04300
C95         C  0.30971553  0.49970544  0.84364249     0.92000
C96         C  0.19037943  0.49963228  0.84366711     0.91200
C97         C  0.25008173  0.49973273  0.80668474     0.83300
C98         C  0.25003716  0.49967637  0.88078462     0.89600
O99         O  0.24924808  0.27477275  0.81560774    -0.74200
O100        O  0.25022450  0.27487619  0.87197522    -0.75100
O101        O  0.29522911  0.27488891  0.84353152    -0.63800
O102        O  0.20463557  0.27464918  0.84400422    -0.72200
O103        O  0.20486302  0.22460956  0.84358166    -0.71700
O104        O  0.29545427  0.22485022  0.84398033    -0.63000
O105        O  0.24990116  0.22475425  0.87200488    -0.75500
O106        O  0.25079354  0.22463347  0.81561901    -0.74300
Cu107      Cu  0.24984917  0.27654389  0.84378359     1.04600
Cu108      Cu  0.25023864  0.22296177  0.84380456     1.04300
C109        C  0.25000114  0.24969631  0.80678146     0.92000
C110        C  0.25007763  0.24983238  0.88086418     0.91200
C111        C  0.30971262  0.24990995  0.84371859     0.83300
C112        C  0.19037941  0.24958780  0.84375550     0.89600
O113        O  0.47499450  0.00084416  0.31565861    -0.74200
O114        O  0.47492903  0.99961253  0.37205274    -0.75100
O115        O  0.47502483  0.04531650  0.34421010    -0.63800
O116        O  0.47498183  0.45472471  0.34360905    -0.72200
O117        O  0.02501390  0.45456808  0.34413345    -0.71700
O118        O  0.02506327  0.04515733  0.34367255    -0.63000
O119        O  0.02506313  0.00013415  0.37204339    -0.75500
O120        O  0.02506436  0.99919252  0.31563460    -0.74300
Cu121      Cu  0.47323551  0.00010888  0.34387399     1.04600
Cu122      Cu  0.02679690  0.99978111  0.34385833     1.04300
C123        C  0.00002274  0.00003838  0.30674434     0.92000
C124        C  0.99999580  0.99984100  0.38091608     0.91200
C125        C  0.00006781  0.05961168  0.34398400     0.83300
C126        C  0.99997179  0.44028102  0.34393375     0.89600
O127        O  0.47495087  0.24959625  0.37184729    -0.74200
O128        O  0.47496827  0.25079408  0.31549376    -0.75100
O129        O  0.47499184  0.20469996  0.34341018    -0.63800
O130        O  0.47501062  0.29529133  0.34398449    -0.72200
O131        O  0.02503677  0.29515267  0.34341888    -0.71700
O132        O  0.02502976  0.20456311  0.34394550    -0.63000
O133        O  0.02505464  0.24906720  0.31547356    -0.75500
O134        O  0.02508618  0.25019745  0.37183014    -0.74300
Cu135      Cu  0.47323338  0.25007531  0.34367336     1.04600
Cu136      Cu  0.02679910  0.24976817  0.34365563     1.04300
C137        C  0.00002718  0.24986343  0.38071008     0.92000
C138        C  0.99999972  0.25000993  0.30661917     0.91200
C139        C  0.99998901  0.19027709  0.34371131     0.83300
C140        C  0.00004159  0.30960868  0.34379287     0.89600
O141        O  0.27488934  0.04510553  0.34332142    -0.74200
O142        O  0.27505844  0.45452938  0.34380198    -0.75100
O143        O  0.27483260  0.99907412  0.31543499    -0.63800
O144        O  0.27499275  0.00011518  0.37175851    -0.72200
O145        O  0.22486805  0.99950970  0.37183056    -0.71700
O146        O  0.22472547  0.00091143  0.31549635    -0.63000
O147        O  0.22502089  0.45471567  0.34324111    -0.75500
O148        O  0.22485340  0.04529022  0.34397499    -0.74300
Cu149      Cu  0.27663843  0.99972824  0.34357971     1.04600
Cu150      Cu  0.22306541  0.00007989  0.34365146     1.04300
C151        C  0.24989699  0.05956849  0.34363247     0.92000
C152        C  0.25001461  0.44025078  0.34349606     0.91200
C153        C  0.24975945  0.00002128  0.30660834     0.83300
C154        C  0.24995825  0.99977736  0.38066524     0.89600
O155        O  0.27493636  0.20449787  0.34397774    -0.74200
O156        O  0.27505051  0.29509424  0.34340924    -0.75100
O157        O  0.27512084  0.25016908  0.37191232    -0.63800
O158        O  0.27495178  0.24896774  0.31549856    -0.72200
O159        O  0.22486255  0.25090712  0.31555181    -0.71700
O160        O  0.22500146  0.24955864  0.37196413    -0.63000
O161        O  0.22501746  0.29530715  0.34408541    -0.75500
O162        O  0.22490016  0.20471987  0.34341741    -0.74300
Cu163      Cu  0.27676101  0.24970396  0.34370048     1.04600
Cu164      Cu  0.22319995  0.25010269  0.34376091     1.04300
C165        C  0.24988212  0.19023761  0.34367371     0.92000
C166        C  0.25006632  0.30957303  0.34372786     0.91200
C167        C  0.25007879  0.24984950  0.38081666     0.83300
C168        C  0.24989031  0.24994297  0.30664653     0.89600
O169        O  0.47500267  0.99987687  0.46672849    -0.74200
O170        O  0.47491910  0.99979369  0.41038118    -0.75100
O171        O  0.47500313  0.45453120  0.43856146    -0.63800
O172        O  0.47495060  0.04513364  0.43851950    -0.72200
O173        O  0.02498538  0.04510026  0.43847661    -0.71700
O174        O  0.02503872  0.45451837  0.43857691    -0.63000
O175        O  0.02505045  0.99974722  0.41036884    -0.75500
O176        O  0.02502695  0.99993064  0.46671069    -0.74300
Cu177      Cu  0.47322893  0.99983149  0.43855426     1.04600
Cu178      Cu  0.02676412  0.99981652  0.43854140     1.04300
C179        C  0.00001366  0.99993865  0.47566380     0.92000
C180        C  0.99998747  0.99978070  0.40150683     0.91200
C181        C  0.00002913  0.44014860  0.43854417     0.83300
C182        C  0.99996019  0.05948316  0.43846210     0.89600
O183        O  0.47497139  0.24981627  0.41018541    -0.74200
O184        O  0.47511479  0.24987778  0.46658410    -0.75100
O185        O  0.47507649  0.29513688  0.43834179    -0.63800
O186        O  0.47502658  0.20455732  0.43837167    -0.72200
O187        O  0.02505833  0.20449022  0.43830811    -0.71700
O188        O  0.02511408  0.29509037  0.43836603    -0.63000
O189        O  0.02511561  0.24978314  0.46655735    -0.75500
O190        O  0.02510680  0.24983455  0.41016061    -0.74300
Cu191      Cu  0.47330839  0.24984746  0.43837532     1.04600
Cu192      Cu  0.02683915  0.24979227  0.43834842     1.04300
C193        C  0.00003788  0.24982801  0.40130257     0.92000
C194        C  0.00010297  0.24987105  0.47552069     0.91200
C195        C  0.00009422  0.30948465  0.43833813     0.83300
C196        C  0.00002967  0.19015066  0.43831544     0.89600
O197        O  0.22499793  0.99972737  0.41017603    -0.74200
O198        O  0.22529245  0.99995132  0.46657998    -0.75100
O199        O  0.22523989  0.04512412  0.43827812    -0.63800
O200        O  0.22493461  0.45453187  0.43840727    -0.72200
O201        O  0.27497562  0.45444321  0.43836448    -0.71700
O202        O  0.27528147  0.04504120  0.43826163    -0.63000
O203        O  0.27532546  0.99981165  0.46652117    -0.75500
O204        O  0.27512380  0.99971573  0.41009581    -0.74300
Cu205      Cu  0.22341865  0.99983473  0.43836956     1.04600
Cu206      Cu  0.27695633  0.99974103  0.43829266     1.04300
C207        C  0.25002900  0.99972737  0.40126291     0.92000
C208        C  0.25032939  0.99993500  0.47550549     0.91200
C209        C  0.25027293  0.05945379  0.43824088     0.83300
C210        C  0.24994105  0.44011588  0.43839725     0.89600
O211        O  0.22504465  0.24980563  0.41031444    -0.74200
O212        O  0.22504540  0.24972035  0.46670180    -0.75100
O213        O  0.22496726  0.29506178  0.43855508    -0.63800
O214        O  0.22517789  0.20446851  0.43845563    -0.72200
O215        O  0.27521927  0.20451006  0.43850365    -0.71700
O216        O  0.27500874  0.29509768  0.43851141    -0.63000
O217        O  0.27508381  0.24983298  0.46669857    -0.75500
O218        O  0.27516788  0.24981974  0.41029745    -0.74300
Cu219      Cu  0.22332052  0.24975800  0.43851007     1.04600
Cu220      Cu  0.27686037  0.24981407  0.43850558     1.04300
C221        C  0.25010362  0.24982220  0.40142816     0.92000
C222        C  0.25005851  0.24980960  0.47564512     0.91200
C223        C  0.24996569  0.30945096  0.43853681     0.83300
C224        C  0.25022325  0.19011777  0.43844679     0.89600
O225        O  0.00010576  0.47520495  0.06580061    -0.74200
O226        O  0.00000223  0.47521372  0.12217032    -0.75100
O227        O  0.45476370  0.47522093  0.09397427    -0.63800
O228        O  0.04534447  0.47520486  0.09398142    -0.72200
O229        O  0.04532577  0.02526311  0.09391253    -0.71700
O230        O  0.45474120  0.02530798  0.09396108    -0.63000
O231        O  0.00004523  0.02532974  0.12215108    -0.75500
O232        O  0.99997769  0.02523254  0.06575503    -0.74300
Cu233      Cu  0.00005187  0.47348486  0.09398206     1.04600
Cu234      Cu  0.00002183  0.02701751  0.09394148     1.04300
C235        C  0.00003923  0.00019537  0.05683072     0.92000
C236        C  0.00002599  0.00027207  0.13103150     0.91200
C237        C  0.44038418  0.00029462  0.09399943     0.83300
C238        C  0.05972144  0.00024454  0.09393758     0.89600
O239        O  0.00025871  0.22494945  0.06592840    -0.74200
O240        O  0.00021047  0.22504253  0.12231132    -0.75100
O241        O  0.45493034  0.22471704  0.09409603    -0.63800
O242        O  0.04552856  0.22555624  0.09414462    -0.72200
O243        O  0.04512421  0.27559334  0.09415339    -0.71700
O244        O  0.45454689  0.27475345  0.09403599    -0.63000
O245        O  0.99972365  0.27516550  0.12227083    -0.75500
O246        O  0.99996334  0.27498380  0.06590236    -0.74300
Cu247      Cu  0.00026387  0.22325860  0.09413263     1.04600
Cu248      Cu  0.99980869  0.27679591  0.09408942     1.04300
C249        C  0.00014866  0.24995467  0.05696927     0.92000
C250        C  0.99994070  0.25012539  0.13116026     0.91200
C251        C  0.44036565  0.24963218  0.09408511     0.83300
C252        C  0.05969697  0.25068432  0.09417399     0.89600
O253        O  0.25033051  0.47519225  0.06599406    -0.74200
O254        O  0.24986745  0.47517187  0.12238664    -0.75100
O255        O  0.20477804  0.47518644  0.09409414    -0.63800
O256        O  0.29537265  0.47522903  0.09434665    -0.72200
O257        O  0.29532448  0.02531938  0.09411006    -0.71700
O258        O  0.20473747  0.02526980  0.09423515    -0.63000
O259        O  0.25011389  0.02539382  0.12236969    -0.75500
O260        O  0.24992372  0.02519633  0.06595484    -0.74300
Cu261      Cu  0.25008661  0.47345584  0.09420462     1.04600
Cu262      Cu  0.25002367  0.02703649  0.09416680     1.04300
C263        C  0.25014390  0.00015173  0.05703123     0.92000
C264        C  0.25001596  0.00034177  0.13125224     0.91200
C265        C  0.19039860  0.00024604  0.09416982     0.83300
C266        C  0.30973205  0.00030977  0.09424473     0.89600
O267        O  0.25008881  0.22517167  0.12209264    -0.74200
O268        O  0.24920993  0.22512701  0.06568934    -0.75100
O269        O  0.29512518  0.22467039  0.09367776    -0.63800
O270        O  0.20454415  0.22568124  0.09414178    -0.72200
O271        O  0.20491322  0.27571163  0.09360414    -0.71700
O272        O  0.29550103  0.27470221  0.09415128    -0.63000
O273        O  0.25092754  0.27517483  0.06566249    -0.75500
O274        O  0.24980867  0.27528992  0.12208085    -0.74300
Cu275      Cu  0.24973834  0.22342187  0.09389374     1.04600
Cu276      Cu  0.25029572  0.27696366  0.09386743     1.04300
C277        C  0.24991421  0.25023663  0.13096657     0.92000
C278        C  0.25007433  0.25013632  0.05676085     0.91200
C279        C  0.30968547  0.24957148  0.09395297     0.83300
C280        C  0.19035828  0.25080842  0.09391008     0.89600
O281        O  0.45449583  0.02519500  0.18847498    -0.74200
O282        O  0.04508880  0.02520948  0.18907435    -0.75100
O283        O  0.00025053  0.02529671  0.16054053    -0.63800
O284        O  0.99889353  0.02516740  0.21696757    -0.72200
O285        O  0.00081425  0.47509441  0.21693808    -0.71700
O286        O  0.99961142  0.47518951  0.16051448    -0.63000
O287        O  0.04526152  0.47519340  0.18842525    -0.75500
O288        O  0.45466633  0.47515033  0.18899682    -0.74300
Cu289      Cu  0.99970556  0.02695653  0.18875667     1.04600
Cu290      Cu  0.00006278  0.47341025  0.18871663     1.04300
C291        C  0.44022078  0.00015135  0.18876149     0.92000
C292        C  0.05955816  0.00022173  0.18875781     0.91200
C293        C  0.99997219  0.00025454  0.15164215     0.83300
C294        C  0.99986574  0.00010362  0.22581562     0.89600
O295        O  0.45440951  0.27485591  0.18850627    -0.74200
O296        O  0.04500031  0.27540372  0.18913650    -0.75100
O297        O  0.00015014  0.27524021  0.16061189    -0.63800
O298        O  0.99882240  0.27524401  0.21696867    -0.72200
O299        O  0.00086623  0.22515488  0.21695824    -0.71700
O300        O  0.99959757  0.22511747  0.16062885    -0.63000
O301        O  0.04528895  0.22537229  0.18848921    -0.75500
O302        O  0.45468059  0.22482279  0.18909273    -0.74300
Cu303      Cu  0.99960987  0.27698279  0.18879619     1.04600
Cu304      Cu  0.00009523  0.22341877  0.18880045     1.04300
C305        C  0.44017423  0.24978907  0.18881420     0.92000
C306        C  0.05951533  0.25044389  0.18884253     0.91200
C307        C  0.99988979  0.25016684  0.15175153     0.83300
C308        C  0.99986119  0.25019527  0.22582962     0.89600
O309        O  0.25033621  0.02537521  0.16073462    -0.74200
O310        O  0.24880217  0.02522766  0.21705872    -0.75100
O311        O  0.29509352  0.02526483  0.18931639    -0.63800
O312        O  0.20449744  0.02522787  0.18855588    -0.72200
O313        O  0.20465890  0.47520393  0.18920458    -0.71700
O314        O  0.29523777  0.47524448  0.18856399    -0.63000
O315        O  0.25078701  0.47522560  0.21702744    -0.75500
O316        O  0.24953897  0.47517948  0.16070910    -0.74300
Cu317      Cu  0.24970578  0.02702392  0.18891617     1.04600
Cu318      Cu  0.25003234  0.47346566  0.18887723     1.04300
C319        C  0.24999456  0.00033149  0.15184495     0.92000
C320        C  0.24973565  0.00015738  0.22589151     0.91200
C321        C  0.30954977  0.00026926  0.18897095     0.83300
C322        C  0.19022137  0.00018279  0.18885613     0.89600
O323        O  0.20458382  0.22530431  0.18894552    -0.74200
O324        O  0.29516576  0.22496430  0.18840799    -0.75100
O325        O  0.25064866  0.22503449  0.21686349    -0.63800
O326        O  0.24955070  0.22516167  0.16044901    -0.72200
O327        O  0.25011445  0.27527670  0.16047817    -0.71700
O328        O  0.24911041  0.27513425  0.21690656    -0.63000
O329        O  0.29511801  0.27500083  0.18891106    -0.75500
O330        O  0.20452610  0.27534159  0.18851253    -0.74300
Cu331      Cu  0.24995354  0.22337258  0.18865875     1.04600
Cu332      Cu  0.24974747  0.27693486  0.18869881     1.04300
C333        C  0.19018430  0.25033593  0.18877459     0.92000
C334        C  0.30951113  0.24996627  0.18868089     0.91200
C335        C  0.24988283  0.25006588  0.22576357     0.83300
C336        C  0.24985020  0.25023021  0.15158298     0.89600
O337        O  0.00012829  0.47458841  0.91026915    -0.74200
O338        O  0.00012013  0.47490724  0.96664340    -0.75100
O339        O  0.45479716  0.47468470  0.93843234    -0.63800
O340        O  0.04539750  0.47488038  0.93845819    -0.72200
O341        O  0.04527277  0.02488362  0.93837525    -0.71700
O342        O  0.45467428  0.02470357  0.93835584    -0.63000
O343        O  0.99990901  0.02491833  0.96655807    -0.75500
O344        O  0.00000474  0.02471555  0.91020179    -0.74300
Cu345      Cu  0.00011408  0.47301814  0.93846482     1.04600
Cu346      Cu  0.99996799  0.02654591  0.93837444     1.04300
C347        C  0.00005194  0.49962097  0.90136646     0.92000
C348        C  0.00001280  0.49996273  0.97554718     0.91200
C349        C  0.44037771  0.49969046  0.93836507     0.83300
C350        C  0.05970286  0.49992517  0.93839304     0.89600
O351        O  0.00020583  0.22491848  0.91028747    -0.74200
O352        O  0.00011569  0.22495744  0.96667528    -0.75100
O353        O  0.45483140  0.22468484  0.93849552    -0.63800
O354        O  0.04545431  0.22508903  0.93848391    -0.72200
O355        O  0.04533717  0.27512725  0.93832179    -0.71700
O356        O  0.45470356  0.27472316  0.93854841    -0.63000
O357        O  0.00025470  0.27499118  0.96668300    -0.75500
O358        O  0.99986748  0.27503973  0.91028844    -0.74300
Cu359      Cu  0.00016252  0.22321576  0.93847974     1.04600
Cu360      Cu  0.00003879  0.27675202  0.93847926     1.04300
C361        C  0.00004231  0.24997689  0.90141435     0.92000
C362        C  0.00021660  0.24997070  0.97562640     0.91200
C363        C  0.44039689  0.24967901  0.93850945     0.83300
C364        C  0.05976622  0.25013183  0.93835882     0.89600
O365        O  0.20475331  0.47494325  0.93855835    -0.74200
O366        O  0.29533931  0.47476549  0.93840565    -0.75100
O367        O  0.25019729  0.47497495  0.96672089    -0.63800
O368        O  0.24996776  0.47468890  0.91029571    -0.72200
O369        O  0.25007547  0.02484669  0.91025287    -0.71700
O370        O  0.24992651  0.02488965  0.96666722    -0.63000
O371        O  0.29532159  0.02475590  0.93845054    -0.75500
O372        O  0.20472612  0.02493148  0.93839006    -0.74300
Cu373      Cu  0.25005598  0.47310508  0.93850390     1.04600
Cu374      Cu  0.25001700  0.02659445  0.93844627     1.04300
C375        C  0.19037608  0.49997315  0.93842728     0.92000
C376        C  0.30971284  0.49976773  0.93838084     0.91200
C377        C  0.25010140  0.50002131  0.97564290     0.83300
C378        C  0.25003407  0.49971988  0.90139010     0.89600
O379        O  0.24989481  0.27495560  0.91032338    -0.74200
O380        O  0.25073313  0.27501848  0.96671545    -0.75100
O381        O  0.29545398  0.27480421  0.93829947    -0.63800
O382        O  0.20486628  0.27512066  0.93869597    -0.72200
O383        O  0.20471163  0.22508258  0.93831234    -0.71700
O384        O  0.29528564  0.22476967  0.93877698    -0.63000
O385        O  0.24935610  0.22495717  0.96674786    -0.75500
O386        O  0.25032944  0.22483466  0.91036028    -0.74300
Cu387      Cu  0.25022661  0.27671928  0.93851374     1.04600
Cu388      Cu  0.24993257  0.22316939  0.93855470     1.04300
C389        C  0.25010544  0.24987597  0.90146761     0.92000
C390        C  0.25004360  0.25000343  0.97564397     0.91200
C391        C  0.30973940  0.24973453  0.93852062     0.83300
C392        C  0.19042056  0.25014981  0.93846161     0.89600
O393        O  0.02513766  0.45497654  0.59400208    -0.74200
O394        O  0.02512872  0.04557087  0.59408888    -0.75100
O395        O  0.02514092  0.00021562  0.62221713    -0.63800
O396        O  0.02515245  0.00033365  0.56587144    -0.72200
O397        O  0.47510008  0.00029805  0.56586499    -0.71700
O398        O  0.47499269  0.00034980  0.62218470    -0.63000
O399        O  0.47508021  0.04562678  0.59402046    -0.75500
O400        O  0.47509900  0.45503460  0.59405724    -0.74300
Cu401      Cu  0.02688602  0.00027601  0.59404776     1.04600
Cu402      Cu  0.47333111  0.50032770  0.59404849     1.04300
C403        C  0.00011824  0.44062341  0.59404977     0.92000
C404        C  0.00010447  0.05995741  0.59407358     0.91200
C405        C  0.00006297  0.00026038  0.63107786     0.83300
C406        C  0.00012880  0.00029305  0.55694105     0.89600
O407        O  0.47488135  0.25035443  0.62223118    -0.74200
O408        O  0.47513115  0.25029500  0.56583775    -0.75100
O409        O  0.47503980  0.20503604  0.59406498    -0.63800
O410        O  0.47505851  0.29563599  0.59403898    -0.72200
O411        O  0.02510455  0.29554773  0.59412979    -0.71700
O412        O  0.02508754  0.20496456  0.59405259    -0.63000
O413        O  0.02511933  0.25030492  0.56585786    -0.75500
O414        O  0.02508252  0.25016473  0.62227313    -0.74300
Cu415      Cu  0.47328982  0.25033670  0.59403840     1.04600
Cu416      Cu  0.02683872  0.25024851  0.59407560     1.04300
C417        C  0.99999908  0.25016152  0.63113281     0.92000
C418        C  0.00010936  0.25030914  0.55690348     0.91200
C419        C  0.00006792  0.19061540  0.59405988     0.83300
C420        C  0.00008892  0.30994900  0.59414426     0.89600
O421        O  0.22485227  0.50021166  0.62232280    -0.74200
O422        O  0.22489553  0.50018394  0.56587555    -0.75100
O423        O  0.22510010  0.45490424  0.59412683    -0.63800
O424        O  0.22485282  0.04551769  0.59406616    -0.72200
O425        O  0.27489348  0.04559110  0.59420217    -0.71700
O426        O  0.27514016  0.45500922  0.59406655    -0.63000
O427        O  0.27522374  0.00038666  0.56590795    -0.75500
O428        O  0.27496631  0.00020965  0.62234369    -0.74300
Cu429      Cu  0.22314030  0.50019808  0.59410491     1.04600
Cu430      Cu  0.27682135  0.00030856  0.59414038     1.04300
C431        C  0.24991948  0.50017500  0.63118999     0.92000
C432        C  0.25024377  0.00030573  0.55692078     0.91200
C433        C  0.25016549  0.44058374  0.59411747     0.83300
C434        C  0.24983779  0.05992441  0.59414661     0.89600
O435        O  0.22502240  0.25035513  0.56591529    -0.74200
O436        O  0.22499477  0.25023966  0.62228420    -0.75100
O437        O  0.22521665  0.29560409  0.59413823    -0.63800
O438        O  0.22484783  0.20502146  0.59405916    -0.72200
O439        O  0.27489031  0.20486654  0.59404289    -0.71700
O440        O  0.27525761  0.29546049  0.59414925    -0.63000
O441        O  0.27512153  0.25005274  0.62227716    -0.75500
O442        O  0.27506204  0.25022966  0.56590152    -0.74300
Cu443      Cu  0.22328187  0.25032049  0.59409865     1.04600
Cu444      Cu  0.27682429  0.25014532  0.59408924     1.04300
C445        C  0.25004155  0.25028522  0.55696501     0.92000
C446        C  0.25005424  0.25010022  0.63115255     0.91200
C447        C  0.25026717  0.30990534  0.59416338     0.83300
C448        C  0.24983506  0.19057465  0.59405368     0.89600
C449        C  0.27758723  0.39102368  0.59423571    -0.14600
C450        C  0.25024639  0.40715309  0.59417099     0.07600
C451        C  0.22295040  0.39101566  0.59415731    -0.14600
C452        C  0.22297580  0.35947574  0.59417069    -0.14600
C453        C  0.25030219  0.34333660  0.59420130     0.07600
C454        C  0.27761263  0.35946492  0.59425024    -0.14600
H455        H  0.29900542  0.40277072  0.59426459     0.11600
H456        H  0.20149377  0.40274945  0.59412042     0.11600
H457        H  0.20154834  0.34774804  0.59414210     0.11600
H458        H  0.29906025  0.34771203  0.59428718     0.11600
C459        C  0.27708510  0.10946054  0.59459345    -0.14600
C460        C  0.24978351  0.09334814  0.59415900     0.07600
C461        C  0.22246464  0.10949393  0.59370693    -0.14600
C462        C  0.22246633  0.14104835  0.59366917    -0.14600
C463        C  0.24978194  0.15715183  0.59408294     0.07600
C464        C  0.27708671  0.14099785  0.59455289    -0.14600
H465        H  0.29852330  0.09770952  0.59496632     0.11600
H466        H  0.20104520  0.09776360  0.59335958     0.11600
H467        H  0.20103579  0.15281739  0.59329856     0.11600
H468        H  0.29851475  0.15271123  0.59490260     0.11600
C469        C  0.02742394  0.35948311  0.59418792    -0.14600
C470        C  0.00010164  0.34337946  0.59419193     0.07600
C471        C  0.47278768  0.35957035  0.59412725    -0.14600
C472        C  0.47280004  0.39111715  0.59411364    -0.14600
C473        C  0.00011689  0.40719402  0.59412161     0.07600
C474        C  0.02743395  0.39103291  0.59415161    -0.14600
H475        H  0.04886310  0.34771663  0.59419085     0.11600
H476        H  0.45135207  0.34785834  0.59414208     0.11600
H477        H  0.45136032  0.40288339  0.59411970     0.11600
H478        H  0.04886830  0.40274848  0.59413303     0.11600
C479        C  0.47277210  0.10955489  0.59388579    -0.14600
C480        C  0.00009664  0.09338326  0.59410597     0.07600
C481        C  0.02740577  0.10949917  0.59439431    -0.14600
C482        C  0.02739702  0.14104603  0.59439128    -0.14600
C483        C  0.00007488  0.15719052  0.59409828     0.07600
C484        C  0.47276319  0.14110209  0.59390163    -0.14600
H485        H  0.45134633  0.09782885  0.59365788     0.11600
H486        H  0.04884820  0.09774493  0.59462029     0.11600
H487        H  0.04882318  0.15277327  0.59461594     0.11600
H488        H  0.45132075  0.15285648  0.59368335     0.11600
C489        C  0.39082652  0.27696068  0.93878978    -0.14600
C490        C  0.40697144  0.24964599  0.93846624     0.07600
C491        C  0.39085616  0.22233645  0.93809265    -0.14600
C492        C  0.35929962  0.22234383  0.93810011    -0.14600
C493        C  0.34316392  0.24966540  0.93847096     0.07600
C494        C  0.35928734  0.27696825  0.93878877    -0.14600
H495        H  0.40254804  0.29838742  0.93906912     0.11600
H496        H  0.40261888  0.20090022  0.93780017     0.11600
H497        H  0.34755850  0.20092866  0.93781001     0.11600
H498        H  0.34754299  0.29841518  0.93907223     0.11600
C499        C  0.10934932  0.22291457  0.93930741    -0.14600
C500        C  0.09319162  0.25017307  0.93827294     0.07600
C501        C  0.10929364  0.27744476  0.93719628    -0.14600
C502        C  0.14085135  0.27746051  0.93723938    -0.14600
C503        C  0.15699815  0.25019971  0.93834940     0.07600
C504        C  0.14088887  0.22292985  0.93934176    -0.14600
H505        H  0.09763685  0.20152177  0.94015503     0.11600
H506        H  0.09751876  0.29883191  0.93632182     0.11600
H507        H  0.15258562  0.29884153  0.93638830     0.11600
H508        H  0.15264603  0.20153171  0.94021432     0.11600
C509        C  0.39082755  0.47237663  0.93817672    -0.14600
C510        C  0.40695079  0.49968288  0.93828783     0.07600
C511        C  0.39078641  0.02697247  0.93830548    -0.14600
C512        C  0.35924172  0.02698874  0.93829981    -0.14600
C513        C  0.34313989  0.49973107  0.93828503     0.07600
C514        C  0.35927517  0.47239819  0.93817299    -0.14600
H515        H  0.40258019  0.45092994  0.93811280     0.11600
H516        H  0.40251312  0.04840090  0.93836606     0.11600
H517        H  0.34749322  0.04843808  0.93835716     0.11600
H518        H  0.34753658  0.45097660  0.93810887     0.11600
C519        C  0.14084356  0.47268722  0.93894415    -0.14600
C520        C  0.15694660  0.49998628  0.93833564     0.07600
C521        C  0.14077721  0.02723162  0.93766155    -0.14600
C522        C  0.10922433  0.02722133  0.93765879    -0.14600
C523        C  0.09313193  0.49996658  0.93832698     0.07600
C524        C  0.10929868  0.47267524  0.93894147    -0.14600
H525        H  0.15260804  0.45126479  0.93946768     0.11600
H526        H  0.15249809  0.04864625  0.93713101     0.11600
H527        H  0.09745107  0.04863917  0.93712469     0.11600
H528        H  0.09758899  0.45125402  0.93946283     0.11600
C529        C  0.39060118  0.22249086  0.18943305    -0.14600
C530        C  0.40674612  0.24976156  0.18883644     0.07600
C531        C  0.39062767  0.27709206  0.18823908    -0.14600
C532        C  0.35908734  0.27715594  0.18820347    -0.14600
C533        C  0.34293605  0.24989505  0.18875012     0.07600
C534        C  0.35904405  0.22255427  0.18938171    -0.14600
H535        H  0.40233855  0.20105075  0.18993094     0.11600
H536        H  0.40237281  0.29849620  0.18777345     0.11600
H537        H  0.34736527  0.29860358  0.18770701     0.11600
H538        H  0.34727884  0.20115979  0.18985430     0.11600
C539        C  0.10907217  0.27777647  0.18939785    -0.14600
C540        C  0.09294353  0.25048955  0.18891111     0.07600
C541        C  0.10907913  0.22316182  0.18847882    -0.14600
C542        C  0.14061969  0.22311613  0.18847208    -0.14600
C543        C  0.15675648  0.25039294  0.18888044     0.07600
C544        C  0.14063054  0.27773145  0.18937545    -0.14600
H545        H  0.09732079  0.29921692  0.18977328     0.11600
H546        H  0.09734736  0.20174500  0.18811705     0.11600
H547        H  0.15235339  0.20166861  0.18809634     0.11600
H548        H  0.15238191  0.29913793  0.18974240     0.11600
C549        C  0.39063303  0.47290080  0.18791503    -0.14600
C550        C  0.40679372  0.00015330  0.18883578     0.07600
C551        C  0.39066881  0.02745457  0.18981969    -0.14600
C552        C  0.35911903  0.02750126  0.18990517    -0.14600
C553        C  0.34297999  0.00025438  0.18898333     0.07600
C554        C  0.35908179  0.47295381  0.18796738    -0.14600
H555        H  0.40237260  0.45148270  0.18713525     0.11600
H556        H  0.40241733  0.04883762  0.19056000     0.11600
H557        H  0.34738101  0.04891893  0.19069062     0.11600
H558        H  0.34733313  0.45157044  0.18722973     0.11600
C559        C  0.10910350  0.47290968  0.18865706    -0.14600
C560        C  0.09298533  0.00023046  0.18880205     0.07600
C561        C  0.10910199  0.02752807  0.18904661    -0.14600
C562        C  0.14065031  0.02750050  0.18906961    -0.14600
C563        C  0.15679548  0.00016936  0.18886383     0.07600
C564        C  0.14065213  0.47288074  0.18871106    -0.14600
H565        H  0.09737401  0.45148534  0.18847570     0.11600
H566        H  0.09734776  0.04897206  0.18920908     0.11600
H567        H  0.15237966  0.04892456  0.18925673     0.11600
H568        H  0.15240694  0.45143579  0.18855530     0.11600
C569        C  0.23749907  0.22582196  0.02603888    -0.14600
C570        C  0.25007458  0.25010011  0.03601576     0.07600
C571        C  0.26263922  0.27434561  0.02600040    -0.14600
C572        C  0.26262645  0.27431462  0.00635869    -0.14600
C573        C  0.25005046  0.25003761  0.99638442     0.07600
C574        C  0.23749123  0.22578901  0.00639729    -0.14600
H575        H  0.22740779  0.20699225  0.03343207     0.11600
H576        H  0.27273535  0.29320001  0.03336340     0.11600
H577        H  0.27271568  0.29314328  0.99896282     0.11600
H578        H  0.22739706  0.20693487  0.99903205     0.11600
C579        C  0.25261430  0.47293910  0.02618246    -0.14600
C580        C  0.25016366  0.00008187  0.03621077     0.07600
C581        C  0.24776020  0.02725833  0.02613203    -0.14600
C582        C  0.24773537  0.02719407  0.00648672    -0.14600
C583        C  0.25011060  0.99995164  0.99646517     0.07600
C584        C  0.25259339  0.47289708  0.00653741    -0.14600
H585        H  0.25456548  0.45160705  0.03350674     0.11600
H586        H  0.24581462  0.04862740  0.03341836     0.11600
H587        H  0.24577367  0.04851628  0.99915490     0.11600
H588        H  0.25453301  0.45153543  0.99924378     0.11600
C589        C  0.39084741  0.22213011  0.09455312    -0.14600
C590        C  0.40693425  0.24946562  0.09413170     0.07600
C591        C  0.39075326  0.27674791  0.09374423    -0.14600
C592        C  0.35922882  0.27672388  0.09370917    -0.14600
C593        C  0.34311624  0.24942112  0.09405504     0.07600
C594        C  0.35927048  0.22210588  0.09450951    -0.14600
H595        H  0.40264585  0.20071579  0.09490304     0.11600
H596        H  0.40243762  0.29819272  0.09343067     0.11600
H597        H  0.34748480  0.29816652  0.09336719     0.11600
H598        H  0.34753045  0.20068930  0.09483269     0.11600
C599        C  0.10931679  0.22359027  0.09436977    -0.14600
C600        C  0.09312301  0.25086952  0.09420911     0.07600
C601        C  0.10919093  0.27822239  0.09403221    -0.14600
C602        C  0.14076499  0.27826305  0.09393897    -0.14600
C603        C  0.15693233  0.25094758  0.09403311     0.07600
C604        C  0.14083842  0.22363098  0.09428491    -0.14600
H605        H  0.09764498  0.20213386  0.09453676     0.11600
H606        H  0.09737994  0.29963658  0.09392870     0.11600
H607        H  0.15249163  0.29969199  0.09377980     0.11600
H608        H  0.15259409  0.20218855  0.09439416     0.11600
C609        C  0.99889587  0.22266321  0.02611454    -0.14600
C610        C  0.00023248  0.24994262  0.03616072     0.07600
C611        C  0.50164165  0.27747769  0.02608187    -0.14600
C612        C  0.50163657  0.27741778  0.00644047    -0.14600
C613        C  0.00027310  0.24995774  0.99643678     0.07600
C614        C  0.99891233  0.22267071  0.00647452    -0.14600
H615        H  0.99776625  0.20125678  0.03342175     0.11600
H616        H  0.50276978  0.29890097  0.03337050     0.11600
H617        H  0.50275983  0.29879942  0.99910522     0.11600
H618        H  0.99779637  0.20126829  0.99916061     0.11600
C619        C  0.39080973  0.02757896  0.09306093    -0.14600
C620        C  0.40696109  0.00030821  0.09408016     0.07600
C621        C  0.39083965  0.47299241  0.09519275    -0.14600
C622        C  0.35929098  0.47299861  0.09529346    -0.14600
C623        C  0.34315597  0.00032394  0.09425050     0.07600
C624        C  0.35926039  0.02758465  0.09314724    -0.14600
H625        H  0.40253455  0.04895977  0.09215623     0.11600
H626        H  0.40260533  0.45159684  0.09603474     0.11600
H627        H  0.34757019  0.45161656  0.09619750     0.11600
H628        H  0.34749330  0.04898026  0.09229817     0.11600
C629        C  0.10926151  0.02755911  0.09416071    -0.14600
C630        C  0.09315221  0.00024502  0.09397310     0.07600
C631        C  0.10928172  0.47288721  0.09388220    -0.14600
C632        C  0.14083184  0.47288337  0.09394837    -0.14600
C633        C  0.15696816  0.00024127  0.09412921     0.07600
C634        C  0.14081109  0.02755922  0.09424220    -0.14600
H635        H  0.09749964  0.04899884  0.09425777     0.11600
H636        H  0.09755648  0.45145926  0.09373820     0.11600
H637        H  0.15259298  0.45144132  0.09384854     0.11600
H638        H  0.15253128  0.04899088  0.09439043     0.11600
C639        C  0.99835355  0.02738057  0.02596847    -0.14600
C640        C  0.00002756  0.00014154  0.03603356     0.07600
C641        C  0.50172251  0.47282833  0.02602536    -0.14600
C642        C  0.50170212  0.47276870  0.00639317    -0.14600
C643        C  0.99999854  0.00001168  0.99633063     0.07600
C644        C  0.99833853  0.02731615  0.00633396    -0.14600
H645        H  0.99700223  0.04879560  0.03325575     0.11600
H646        H  0.50308586  0.45145602  0.03335669     0.11600
H647        H  0.50305312  0.45135365  0.99910642     0.11600
H648        H  0.99697852  0.04868497  0.99899810     0.11600
C649        C  0.27736302  0.25024444  0.50648270    -0.14600
C650        C  0.25004707  0.24992756  0.49644966     0.07600
C651        C  0.22272470  0.24977887  0.50649519    -0.14600
C652        C  0.22272107  0.24992615  0.52613144    -0.14600
C653        C  0.25003963  0.25022227  0.53616285     0.07600
C654        C  0.27735957  0.25038827  0.52611767    -0.14600
H655        H  0.29880165  0.25038584  0.49916969     0.11600
H656        H  0.20129007  0.24954204  0.49919157     0.11600
H657        H  0.20128367  0.24978308  0.53344595     0.11600
H658        H  0.29879451  0.25062459  0.53342053     0.11600
C659        C  0.22260484  0.39057701  0.43869699    -0.14600
C660        C  0.24992033  0.40668819  0.43843116     0.07600
C661        C  0.27723797  0.39053652  0.43821028    -0.14600
C662        C  0.27724180  0.35899326  0.43825878    -0.14600
C663        C  0.24993253  0.34287797  0.43852378     0.07600
C664        C  0.22260853  0.35902484  0.43874546    -0.14600
H665        H  0.20116479  0.40233867  0.43887682     0.11600
H666        H  0.29866781  0.40225545  0.43799447     0.11600
H667        H  0.29868617  0.34724066  0.43807468     0.11600
H668        H  0.20118389  0.34729696  0.43895695     0.11600
C669        C  0.27758516  0.10899429  0.43887430    -0.14600
C670        C  0.25029028  0.09288053  0.43820318     0.07600
C671        C  0.22298920  0.10902872  0.43755042    -0.14600
C672        C  0.22297866  0.14057258  0.43762319    -0.14600
C673        C  0.25026444  0.15669048  0.43834598     0.07600
C674        C  0.27757448  0.14054615  0.43894812    -0.14600
H675        H  0.29901136  0.09723398  0.43939169     0.11600
H676        H  0.20157799  0.09730602  0.43698752     0.11600
H677        H  0.20154837  0.15232438  0.43710636     0.11600
H678        H  0.29898228  0.15227708  0.43951145     0.11600
C679        C  0.27729133  0.50031969  0.50638834    -0.14600
C680        C  0.25035028  0.00007296  0.49633384     0.07600
C681        C  0.22303100  0.99995234  0.50638694    -0.14600
C682        C  0.22300916  0.00005596  0.52603067    -0.14600
C683        C  0.25030623  0.00028692  0.53609022     0.07600
C684        C  0.27726552  0.50041428  0.52603635    -0.14600
H685        H  0.29873821  0.50043570  0.49908440     0.11600
H686        H  0.20159851  0.99975541  0.49908158     0.11600
H687        H  0.20156124  0.99993125  0.53333112     0.11600
H688        H  0.29869245  0.50059296  0.53334689     0.11600
C689        C  0.02742800  0.25029166  0.50638007    -0.14600
C690        C  0.00011179  0.24997841  0.49634080     0.07600
C691        C  0.47285734  0.24974499  0.50639767    -0.14600
C692        C  0.47286526  0.24986137  0.52603931    -0.14600
C693        C  0.00011623  0.25024421  0.53608253     0.07600
C694        C  0.02743047  0.25042383  0.52602465    -0.14600
H695        H  0.04886425  0.25044485  0.49906378     0.11600
H696        H  0.45141804  0.24951065  0.49910114     0.11600
H697        H  0.45142847  0.24970551  0.53335405     0.11600
H698        H  0.04886536  0.25066322  0.53332572     0.11600
C699        C  0.47276243  0.39060446  0.43790310    -0.14600
C700        C  0.00005331  0.40672097  0.43847156     0.07600
C701        C  0.02737107  0.39057965  0.43894751    -0.14600
C702        C  0.02738722  0.35903063  0.43887702    -0.14600
C703        C  0.00009011  0.34291120  0.43833282     0.07600
C704        C  0.47277774  0.35905706  0.43782931    -0.14600
H705        H  0.45132555  0.40235561  0.43749290     0.11600
H706        H  0.04878478  0.40231086  0.43939821     0.11600
H707        H  0.04882320  0.34727732  0.43928309     0.11600
H708        H  0.45136323  0.34732877  0.43737227     0.11600
C709        C  0.47266203  0.10908519  0.43838738    -0.14600
C710        C  0.99996600  0.09291041  0.43835860     0.07600
C711        C  0.02729235  0.10900476  0.43821956    -0.14600
C712        C  0.02731439  0.14055126  0.43817374    -0.14600
C713        C  0.00000575  0.15672195  0.43826857     0.07600
C714        C  0.47268464  0.14063372  0.43834329    -0.14600
H715        H  0.45122420  0.09737589  0.43846977     0.11600
H716        H  0.04872879  0.09723300  0.43816368     0.11600
H717        H  0.04875419  0.15225780  0.43808753     0.11600
H718        H  0.45124985  0.15240832  0.43839618     0.11600
C719        C  0.47275720  0.99933537  0.50649542    -0.14600
C720        C  0.00004142  0.00005634  0.49645625     0.07600
C721        C  0.02736762  0.50093193  0.50644808    -0.14600
C722        C  0.02740013  0.50103952  0.52607808    -0.14600
C723        C  0.00010694  0.00025626  0.53615054     0.07600
C724        C  0.47278258  0.99943945  0.52612430    -0.14600
H725        H  0.45132210  0.99863278  0.49920409     0.11600
H726        H  0.04878311  0.50156041  0.49911832     0.11600
H727        H  0.04883565  0.50174061  0.53336802     0.11600
H728        H  0.45136499  0.99880743  0.53345012     0.11600
C729        C  0.26932731  0.23073538  0.27600990    -0.14600
C730        C  0.24986015  0.24995180  0.28597420     0.07600
C731        C  0.23039001  0.26919311  0.27604686    -0.14600
C732        C  0.23080051  0.26962236  0.25640130    -0.14600
C733        C  0.24987519  0.25002223  0.24643559     0.07600
C734        C  0.26893204  0.23037563  0.25636411    -0.14600
H735        H  0.28442128  0.21566004  0.28343498     0.11600
H736        H  0.21529600  0.28424791  0.28350040     0.11600
H737        H  0.21584826  0.28486817  0.24896950     0.11600
H738        H  0.28388930  0.21515507  0.24890419     0.11600
C739        C  0.22271074  0.39069827  0.34360011    -0.14600
C740        C  0.25000988  0.40681998  0.34348105     0.07600
C741        C  0.27734723  0.39067504  0.34341693    -0.14600
C742        C  0.27737922  0.35912500  0.34349520    -0.14600
C743        C  0.25007967  0.34300401  0.34365224     0.07600
C744        C  0.22274296  0.35914984  0.34369689    -0.14600
H745        H  0.20126337  0.40244818  0.34365389     0.11600
H746        H  0.29877280  0.40240552  0.34331285     0.11600
H747        H  0.29882621  0.34737355  0.34344744     0.11600
H748        H  0.20131606  0.34742111  0.34380132     0.11600
C749        C  0.27721076  0.10911040  0.34354471    -0.14600
C750        C  0.24990658  0.09299660  0.34359610     0.07600
C751        C  0.22257301  0.10914673  0.34361881    -0.14600
C752        C  0.22255062  0.14069635  0.34362168    -0.14600
C753        C  0.24985680  0.15680901  0.34361767     0.07600
C754        C  0.27718841  0.14065735  0.34356564    -0.14600
H755        H  0.29865621  0.09735512  0.34351481     0.11600
H756        H  0.20114388  0.09742084  0.34363760     0.11600
H757        H  0.20110703  0.15245383  0.34365236     0.11600
H758        H  0.29861939  0.15238085  0.34354197     0.11600
C759        C  0.26944642  0.48098542  0.27601868    -0.14600
C760        C  0.24972307  0.00005990  0.28598331     0.07600
C761        C  0.23025422  0.01932760  0.27608897    -0.14600
C762        C  0.23063546  0.01974067  0.25646077    -0.14600
C763        C  0.24969516  0.00010939  0.24651844     0.07600
C764        C  0.26898118  0.48062466  0.25639486    -0.14600
H765        H  0.28454218  0.46588693  0.28342944     0.11600
H766        H  0.21518439  0.03439929  0.28355463     0.11600
H767        H  0.21569292  0.03499131  0.24902787     0.11600
H768        H  0.28389827  0.46539610  0.24891306     0.11600
C769        C  0.01938703  0.23081215  0.27600219    -0.14600
C770        C  0.99998319  0.25006887  0.28597199     0.07600
C771        C  0.48054744  0.26911716  0.27605459    -0.14600
C772        C  0.48088786  0.26950467  0.25642138    -0.14600
C773        C  0.99991665  0.25017285  0.24647499     0.07600
C774        C  0.01895948  0.23047013  0.25636763    -0.14600
H775        H  0.03446140  0.21567116  0.28342091     0.11600
H776        H  0.46551391  0.28425064  0.28352147     0.11600
H777        H  0.46597947  0.28477420  0.24900140     0.11600
H778        H  0.03384767  0.21523057  0.24889590     0.11600
C779        C  0.47268116  0.39070552  0.34406552    -0.14600
C780        C  0.99996883  0.40685243  0.34405967     0.07600
C781        C  0.02730738  0.39071200  0.34409065    -0.14600
C782        C  0.02734125  0.35916321  0.34403347    -0.14600
C783        C  0.00004299  0.34303819  0.34396752     0.07600
C784        C  0.47271648  0.35915457  0.34401321    -0.14600
H785        H  0.45123027  0.40245262  0.34411281     0.11600
H786        H  0.04873176  0.40244449  0.34409777     0.11600
H787        H  0.04879102  0.34741516  0.34401059     0.11600
H788        H  0.45129208  0.34742151  0.34401878     0.11600
C789        C  0.02732953  0.14071545  0.34412249    -0.14600
C790        C  0.99999031  0.15685077  0.34387924     0.07600
C791        C  0.47269094  0.14070253  0.34393671    -0.14600
C792        C  0.47272802  0.10915770  0.34403100    -0.14600
C793        C  0.00006932  0.09304021  0.34407006     0.07600
C794        C  0.02736617  0.10916731  0.34421133    -0.14600
H795        H  0.04875282  0.15245118  0.34420658     0.11600
H796        H  0.45124089  0.15244794  0.34381357     0.11600
H797        H  0.45130480  0.09742236  0.34396000     0.11600
H798        H  0.04881595  0.09742115  0.34435839     0.11600
C799        C  0.47813984  0.01656615  0.27609078    -0.14600
C800        C  0.00000744  0.00008461  0.28602765     0.07600
C801        C  0.02186787  0.48365172  0.27602602    -0.14600
C802        C  0.02146448  0.48322991  0.25637613    -0.14600
C803        C  0.99989847  0.00007709  0.24646881     0.07600
C804        C  0.47842579  0.01699087  0.25644085    -0.14600
H805        H  0.46116669  0.02948938  0.28352465     0.11600
H806        H  0.03887718  0.47072039  0.28340894     0.11600
H807        H  0.03829393  0.47015458  0.24888138     0.11600
H808        H  0.46156003  0.03007546  0.24899828     0.11600
C809        C  0.39080918  0.22256990  0.84333992    -0.14600
C810        C  0.40695992  0.24985846  0.84358110     0.07600
C811        C  0.39084431  0.27719868  0.84378560    -0.14600
C812        C  0.35928227  0.27723701  0.84381079    -0.14600
C813        C  0.34314298  0.24994059  0.84362736     0.07600
C814        C  0.35927018  0.22260813  0.84336169    -0.14600
H815        H  0.40253206  0.20110736  0.84314091     0.11600
H816        H  0.40260625  0.29860435  0.84397095     0.11600
H817        H  0.34753408  0.29868267  0.84401073     0.11600
H818        H  0.34753456  0.20118588  0.84317774     0.11600
C819        C  0.10928736  0.27692562  0.84384496    -0.14600
C820        C  0.09313933  0.24963678  0.84359529     0.07600
C821        C  0.10925497  0.22229801  0.84330968    -0.14600
C822        C  0.14081603  0.22225996  0.84334178    -0.14600
C823        C  0.15695178  0.24955536  0.84365713     0.07600
C824        C  0.14082428  0.27688776  0.84387307    -0.14600
H825        H  0.09756458  0.29838797  0.84404239     0.11600
H826        H  0.09749455  0.20089250  0.84309080     0.11600
H827        H  0.15256560  0.20081482  0.84314111     0.11600
H828        H  0.15255750  0.29831003  0.84408931     0.11600
C829        C  0.39080317  0.02709376  0.84241593    -0.14600
C830        C  0.40695199  0.49978561  0.84361539     0.07600
C831        C  0.39085324  0.47251911  0.84478674    -0.14600
C832        C  0.35930650  0.47247940  0.84474773    -0.14600
C833        C  0.34314080  0.49971128  0.84356045     0.07600
C834        C  0.35924761  0.02706624  0.84239366    -0.14600
H835        H  0.40252785  0.04847122  0.84146088     0.11600
H836        H  0.40262368  0.45114288  0.84577713     0.11600
H837        H  0.34759403  0.45109933  0.84572310     0.11600
H838        H  0.34747359  0.04844122  0.84141862     0.11600
C839        C  0.10921773  0.02679697  0.84512472    -0.14600
C840        C  0.09314169  0.49947544  0.84361771     0.07600
C841        C  0.10932689  0.47230153  0.84203701    -0.14600
C842        C  0.14088277  0.47236390  0.84203184    -0.14600
C843        C  0.15695408  0.49959877  0.84359508     0.07600
C844        C  0.14076445  0.02686421  0.84510952    -0.14600
H845        H  0.09742661  0.04812194  0.84641234     0.11600
H846        H  0.09762486  0.45095312  0.84078301     0.11600
H847        H  0.15268418  0.45104030  0.84076784     0.11600
H848        H  0.15245888  0.04821102  0.84639602     0.11600
C849        C  0.27548849  0.23998314  0.75666349    -0.14600
C850        C  0.24995708  0.24989368  0.74667720     0.07600
C851        C  0.22442078  0.25969391  0.75671597    -0.14600
C852        C  0.22458072  0.25994252  0.77635620    -0.14600
C853        C  0.24995945  0.24969665  0.78620674     0.07600
C854        C  0.27533132  0.23953923  0.77630129    -0.14600
H855        H  0.29543533  0.23222378  0.74929213     0.11600
H856        H  0.20447421  0.26752437  0.74938563     0.11600
H857        H  0.20481061  0.26778466  0.78387505     0.11600
H858        H  0.29511271  0.23164870  0.78377626     0.11600
C859        C  0.22303998  0.35924701  0.68831569    -0.14600
C860        C  0.25033710  0.34307927  0.68882277     0.07600
C861        C  0.27765102  0.35917612  0.68936194    -0.14600
C862        C  0.27766287  0.39073723  0.68939264    -0.14600
C863        C  0.25035699  0.40689257  0.68887522     0.07600
C864        C  0.22305204  0.39078280  0.68834290    -0.14600
H865        H  0.20160756  0.34754639  0.68788721     0.11600
H866        H  0.29907109  0.34739589  0.68977320     0.11600
H867        H  0.29907826  0.40246574  0.68982101     0.11600
H868        H  0.20161418  0.40253464  0.68793305     0.11600
C869        C  0.22220701  0.10924565  0.68939209    -0.14600
C870        C  0.24949917  0.09305903  0.68899879     0.07600
C871        C  0.27682930  0.10914003  0.68859131    -0.14600
C872        C  0.27688033  0.14067641  0.68854900    -0.14600
C873        C  0.24959736  0.15687648  0.68891121     0.07600
C874        C  0.22225800  0.14080833  0.68934511    -0.14600
H875        H  0.20077356  0.09754084  0.68972078     0.11600
H876        H  0.29825908  0.09736493  0.68828614     0.11600
H877        H  0.29833076  0.15235167  0.68821588     0.11600
H878        H  0.20084534  0.15261319  0.68964733     0.11600
C879        C  0.23097933  0.48033677  0.75645994    -0.14600
C880        C  0.25015289  0.49986596  0.74655232     0.07600
C881        C  0.26900049  0.01934463  0.75645873    -0.14600
C882        C  0.26867509  0.01970584  0.77609122    -0.14600
C883        C  0.25011996  0.49976846  0.78604169     0.07600
C884        C  0.23136461  0.47990126  0.77609138    -0.14600
H885        H  0.21612193  0.46508020  0.74899699     0.11600
H886        H  0.28383167  0.03463727  0.74899405     0.11600
H887        H  0.28340895  0.03513152  0.78351836     0.11600
H888        H  0.21664140  0.46445699  0.78351978     0.11600
C889        C  0.47987726  0.23102306  0.75647710    -0.14600
C890        C  0.49981451  0.24973515  0.74652791     0.07600
C891        C  0.01972059  0.26881697  0.75645207    -0.14600
C892        C  0.01942941  0.26917403  0.77609180    -0.14600
C893        C  0.99986076  0.25009967  0.78604487     0.07600
C894        C  0.48040739  0.23046583  0.77611737    -0.14600
H895        H  0.46429150  0.21645921  0.74903810     0.11600
H896        H  0.03523545  0.28344480  0.74899425     0.11600
H897        H  0.03483322  0.28390659  0.78352022     0.11600
H898        H  0.46507740  0.21567485  0.78356841     0.11600
C899        C  0.02723464  0.39075639  0.68855611    -0.14600
C900        C  0.49992092  0.40692793  0.68841389     0.07600
C901        C  0.47256137  0.39087169  0.68812144    -0.14600
C902        C  0.47247037  0.35932059  0.68821748    -0.14600
C903        C  0.49974217  0.34311389  0.68858488     0.07600
C904        C  0.02715002  0.35921169  0.68860748    -0.14600
H905        H  0.04868697  0.40243510  0.68875648     0.11600
H906        H  0.45114810  0.40267801  0.68787448     0.11600
H907        H  0.45101785  0.34764126  0.68802112     0.11600
H908        H  0.04856653  0.34741192  0.68884773     0.11600
C909        C  0.47256862  0.10925816  0.68825049    -0.14600
C910        C  0.49988884  0.09312329  0.68849496     0.07600
C911        C  0.02725163  0.10927120  0.68873686    -0.14600
C912        C  0.02725077  0.14082295  0.68876560    -0.14600
C913        C  0.49988015  0.15693134  0.68848610     0.07600
C914        C  0.47256631  0.14080577  0.68823873    -0.14600
H915        H  0.45114476  0.09752380  0.68809457     0.11600
H916        H  0.04869795  0.09752067  0.68886962     0.11600
H917        H  0.04867486  0.15255433  0.68890889     0.11600
H918        H  0.45111859  0.15255411  0.68808589     0.11600
C919        C  0.48033060  0.48084408  0.75637227    -0.14600
C920        C  0.00000515  0.49983667  0.74642006     0.07600
C921        C  0.01968523  0.01877450  0.75638752    -0.14600
C922        C  0.01929908  0.01914235  0.77602995    -0.14600
C923        C  0.00003726  0.49973697  0.78595648     0.07600
C924        C  0.48072484  0.48041039  0.77601494    -0.14600
H925        H  0.46505155  0.46598631  0.74892351     0.11600
H926        H  0.03496397  0.03366095  0.74895025     0.11600
H927        H  0.03442618  0.03414847  0.78347756     0.11600
H928        H  0.46560063  0.46537702  0.78345236     0.11600
O929        O  0.47494734  0.99904418  0.71687267    -0.74200
O930        O  0.47495659  0.50050686  0.66052384    -0.75100
O931        O  0.47496809  0.95472073  0.68825459    -0.63800
O932        O  0.47498495  0.54528376  0.68902745    -0.72200
O933        O  0.02497596  0.54538517  0.68838843    -0.71700
O934        O  0.02497049  0.95475502  0.68889222    -0.63000
O935        O  0.02507556  0.49978257  0.66049908    -0.75500
O936        O  0.02502646  0.00079540  0.71688657    -0.74300
Cu937      Cu  0.47320480  0.99991046  0.68866394     1.04600
Cu938      Cu  0.02676922  0.50016795  0.68866261     1.04300
C939        C  0.49999475  0.99990661  0.72574602     0.92000
C940        C  0.00002257  0.50017953  0.65163261     0.91200
C941        C  0.99996121  0.94036135  0.68851968     0.83300
C942        C  0.99992238  0.55969591  0.68863556     0.89600
O943        O  0.47466967  0.74923736  0.71697109    -0.74200
O944        O  0.47484126  0.75039714  0.66058252    -0.75100
O945        O  0.47483347  0.70470675  0.68847021    -0.63800
O946        O  0.47476112  0.79532461  0.68900138    -0.72200
O947        O  0.02475722  0.79535549  0.68852411    -0.71700
O948        O  0.02482774  0.70478464  0.68900777    -0.63000
O949        O  0.02489420  0.74977499  0.66061359    -0.75500
O950        O  0.02479182  0.75079607  0.71697447    -0.74300
Cu951      Cu  0.47302567  0.74993644  0.68876508     1.04600
Cu952      Cu  0.02655754  0.75015412  0.68879073     1.04300
C953        C  0.49969752  0.75014218  0.72586169     0.92000
C954        C  0.49993053  0.75008531  0.65173199     0.91200
C955        C  0.49988741  0.69039647  0.68874750     0.83300
C956        C  0.49976164  0.80973123  0.68865060     0.89600
O957        O  0.22490636  0.50036115  0.66070435    -0.74200
O958        O  0.22472449  0.99888069  0.71705678    -0.75100
O959        O  0.22485475  0.54516356  0.68926477    -0.63800
O960        O  0.22495938  0.95454302  0.68850477    -0.72200
O961        O  0.27499273  0.95479121  0.68915898    -0.71700
O962        O  0.27488783  0.54539232  0.68856213    -0.63000
O963        O  0.27481826  0.00087131  0.71703984    -0.75500
O964        O  0.27485782  0.99973336  0.66068477    -0.74300
Cu965      Cu  0.22326270  0.49978326  0.68890300     1.04600
Cu966      Cu  0.27656313  0.00016863  0.68887421     1.04300
C967        C  0.24994919  0.50007942  0.65180117     0.92000
C968        C  0.24977502  0.99985965  0.72591264     0.91200
C969        C  0.24980627  0.55964812  0.68892547     0.83300
C970        C  0.25004918  0.94029628  0.68882669     0.89600
O971        O  0.27483610  0.70454120  0.68844515    -0.74200
O972        O  0.27513659  0.79512543  0.68906954    -0.75100
O973        O  0.27497141  0.74896465  0.71696218    -0.63800
O974        O  0.27505852  0.75026369  0.66055477    -0.72200
O975        O  0.22493656  0.74971714  0.66055222    -0.71700
O976        O  0.22488460  0.75097425  0.71695903    -0.63000
O977        O  0.22510262  0.79540274  0.68842918    -0.75500
O978        O  0.22480111  0.70482620  0.68907091    -0.74300
Cu979      Cu  0.27674780  0.74973994  0.68875706     1.04600
Cu980      Cu  0.22318583  0.75021193  0.68875131     1.04300
C981        C  0.24976248  0.69031295  0.68877400     0.92000
C982        C  0.25017407  0.80963378  0.68874431     0.91200
C983        C  0.24991841  0.74994527  0.72583938     0.83300
C984        C  0.25000439  0.75002713  0.65167758     0.89600
O985        O  0.99900044  0.97466742  0.81548574    -0.74200
O986        O  0.00051798  0.97454717  0.87187895    -0.75100
O987        O  0.45467802  0.97476043  0.84408717    -0.63800
O988        O  0.04528686  0.97457333  0.84325361    -0.72200
O989        O  0.04541559  0.52453484  0.84409109    -0.71700
O990        O  0.45481723  0.52474966  0.84333352    -0.63000
O991        O  0.99961151  0.52464656  0.87189760    -0.75500
O992        O  0.00109362  0.52472321  0.81551810    -0.74300
Cu993      Cu  0.99989745  0.97287546  0.84367770     1.04600
Cu994      Cu  0.00021724  0.52641170  0.84371360     1.04300
C995        C  0.00001933  0.99972243  0.80662827     0.92000
C996        C  0.00007348  0.99960262  0.88075852     0.91200
C997        C  0.44039011  0.99981976  0.84370040     0.83300
C998        C  0.05971619  0.99955686  0.84363528     0.89600
O999        O  0.99920816  0.72440066  0.81557508    -0.74200
O1000       O  0.00032087  0.72452056  0.87196690    -0.75100
O1001       O  0.45470596  0.72497230  0.84406569    -0.63800
O1002       O  0.04529067  0.72444517  0.84349349    -0.72200
O1003       O  0.04541570  0.77447781  0.84409196    -0.71700
O1004       O  0.45481555  0.77500658  0.84348124    -0.63000
O1005       O  0.99960239  0.77463949  0.87191799    -0.75500
O1006       O  0.00107586  0.77449347  0.81556115    -0.74300
Cu1007     Cu  0.99990083  0.72272539  0.84376790     1.04600
Cu1008     Cu  0.00020983  0.77628846  0.84373536     1.04300
C1009       C  0.00014359  0.74944041  0.80669966     0.92000
C1010       C  0.99994644  0.74960672  0.88081547     0.91200
C1011       C  0.44039156  0.75001761  0.84376232     0.83300
C1012       C  0.05972539  0.74942761  0.84379126     0.89600
O1013       O  0.29531363  0.97479273  0.84348782    -0.74200
O1014       O  0.20472115  0.97469317  0.84388113    -0.75100
O1015       O  0.24932600  0.97472087  0.81554464    -0.63800
O1016       O  0.25026420  0.97469949  0.87190821    -0.72200
O1017       O  0.24980514  0.52473042  0.87190809    -0.71700
O1018       O  0.25078396  0.52477434  0.81556391    -0.63000
O1019       O  0.20477045  0.52464589  0.84351869    -0.75500
O1020       O  0.29537869  0.52474150  0.84388755    -0.74300
Cu1021     Cu  0.24993703  0.97298030  0.84371087     1.04600
Cu1022     Cu  0.25015513  0.52646799  0.84372541     1.04300
C1023       C  0.30971597  0.99979766  0.84365425     0.92000
C1024       C  0.19037745  0.99972354  0.84365555     0.91200
C1025       C  0.25002382  0.99977938  0.80668516     0.83300
C1026       C  0.25002424  0.99976104  0.88078425     0.89600
O1027       O  0.24906867  0.77473016  0.81560900    -0.74200
O1028       O  0.25033389  0.77488267  0.87201580    -0.75100
O1029       O  0.29521920  0.77485135  0.84349577    -0.63800
O1030       O  0.20462602  0.77464711  0.84412016    -0.72200
O1031       O  0.20491773  0.72461420  0.84356126    -0.71700
O1032       O  0.29549933  0.72481940  0.84409485    -0.63000
O1033       O  0.24984579  0.72476649  0.87205758    -0.75500
O1034       O  0.25099926  0.72464652  0.81562030    -0.74300
Cu1035     Cu  0.24983367  0.77652119  0.84381027     1.04600
Cu1036     Cu  0.25029689  0.72296440  0.84383837     1.04300
C1037       C  0.25000388  0.74968181  0.80673322     0.92000
C1038       C  0.25010188  0.74984859  0.88091664     0.91200
C1039       C  0.30972982  0.74988854  0.84377869     0.83300
C1040       C  0.19040070  0.74957197  0.84382760     0.89600
O1041       O  0.47498781  0.50082927  0.31565268    -0.74200
O1042       O  0.47493884  0.49962205  0.37205024    -0.75100
O1043       O  0.47502569  0.54532385  0.34419140    -0.63800
O1044       O  0.47496978  0.95473672  0.34360809    -0.72200
O1045       O  0.02501643  0.95455951  0.34411241    -0.71700
O1046       O  0.02506857  0.54514960  0.34367761    -0.63000
O1047       O  0.02505469  0.50014750  0.37204834    -0.75500
O1048       O  0.02507924  0.49918365  0.31564481    -0.74300
Cu1049     Cu  0.47324003  0.50010617  0.34386880     1.04600
Cu1050     Cu  0.02679964  0.49978184  0.34386795     1.04300
C1051       C  0.00003988  0.50003536  0.30675259     0.92000
C1052       C  0.99998502  0.49985685  0.38091755     0.91200
C1053       C  0.00007320  0.55960232  0.34399213     0.83300
C1054       C  0.99997633  0.94026779  0.34390740     0.89600
O1055       O  0.47494770  0.74958872  0.37184908    -0.74200
O1056       O  0.47495320  0.75089222  0.31549615    -0.75100
O1057       O  0.47498596  0.70473044  0.34337688    -0.63800
O1058       O  0.47498821  0.79532064  0.34401523    -0.72200
O1059       O  0.02505057  0.79511885  0.34337543    -0.71700
O1060       O  0.02503883  0.70453100  0.34396856    -0.63000
O1061       O  0.02506392  0.74896098  0.31546094    -0.75500
O1062       O  0.02509253  0.75020255  0.37182252    -0.74300
Cu1063     Cu  0.47322086  0.75010983  0.34367474     1.04600
Cu1064     Cu  0.02680952  0.74972923  0.34364565     1.04300
C1065       C  0.00003348  0.74986795  0.38070352     0.92000
C1066       C  0.00000414  0.74986821  0.30660998     0.91200
C1067       C  0.99999731  0.69024754  0.34374387     0.83300
C1068       C  0.00005615  0.80957777  0.34374282     0.89600
O1069       O  0.27510203  0.54512340  0.34336436    -0.74200
O1070       O  0.27485441  0.95452718  0.34380444    -0.75100
O1071       O  0.27509773  0.49913490  0.31544737    -0.63800
O1072       O  0.27512450  0.50008918  0.37178305    -0.72200
O1073       O  0.22499957  0.49949295  0.37179825    -0.71700
O1074       O  0.22499064  0.50097628  0.31547758    -0.63000
O1075       O  0.22481502  0.95469590  0.34328695    -0.75500
O1076       O  0.22506456  0.54530576  0.34397046    -0.74300
Cu1077     Cu  0.27684472  0.49974049  0.34360025     1.04600
Cu1078     Cu  0.22327184  0.50009944  0.34362411     1.04300
C1079       C  0.25010825  0.55958525  0.34365606     0.92000
C1080       C  0.24981504  0.94024141  0.34352010     0.91200
C1081       C  0.25003811  0.50011252  0.30660531     0.83300
C1082       C  0.25006207  0.49974638  0.38066128     0.89600
O1083       O  0.27504260  0.70454363  0.34395007    -0.74200
O1084       O  0.27500630  0.79513453  0.34338338    -0.75100
O1085       O  0.27513724  0.75020517  0.37187105    -0.63800
O1086       O  0.27498781  0.74902397  0.31547870    -0.72200
O1087       O  0.22489409  0.75088423  0.31553310    -0.71700
O1088       O  0.22501582  0.74952652  0.37191785    -0.63000
O1089       O  0.22497208  0.79527693  0.34405661    -0.75500
O1090       O  0.22500568  0.70469935  0.34338546    -0.74300
Cu1091     Cu  0.27679134  0.74975202  0.34367131     1.04600
Cu1092     Cu  0.22322678  0.75007362  0.34372839     1.04300
C1093       C  0.25000704  0.69025110  0.34365111     0.92000
C1094       C  0.25000111  0.80957651  0.34370296     0.91200
C1095       C  0.25009131  0.74984381  0.38076839     0.83300
C1096       C  0.24992291  0.74996379  0.30663020     0.89600
O1097       O  0.47498977  0.49986763  0.46673868    -0.74200
O1098       O  0.47492433  0.49980034  0.41038221    -0.75100
O1099       O  0.47501660  0.95453515  0.43856129    -0.63800
O1100       O  0.47494880  0.54513462  0.43852937    -0.72200
O1101       O  0.02497732  0.54509525  0.43847799    -0.71700
O1102       O  0.02504299  0.95451425  0.43859377    -0.63000
O1103       O  0.02503889  0.49976128  0.41036538    -0.75500
O1104       O  0.02502514  0.49991743  0.46669930    -0.74300
Cu1105     Cu  0.47322345  0.49983026  0.43855950     1.04600
Cu1106     Cu  0.02675788  0.49981652  0.43853350     1.04300
C1107       C  0.00001216  0.49992585  0.47565200     0.92000
C1108       C  0.99997508  0.49979619  0.40150516     0.91200
C1109       C  0.00003361  0.94014319  0.43856121     0.83300
C1110       C  0.99995230  0.55947749  0.43846663     0.89600
O1111       O  0.47497261  0.74982616  0.41018473    -0.74200
O1112       O  0.47509605  0.74989659  0.46658052    -0.75100
O1113       O  0.47508355  0.79515112  0.43833880    -0.63800
O1114       O  0.47501949  0.70456707  0.43836810    -0.72200
O1115       O  0.02506711  0.70447438  0.43830281    -0.71700
O1116       O  0.02512622  0.79507742  0.43836009    -0.63000
O1117       O  0.02514323  0.74976252  0.46654905    -0.75500
O1118       O  0.02511363  0.74982199  0.41015376    -0.74300
Cu1119     Cu  0.47330459  0.74986083  0.43837228     1.04600
Cu1120     Cu  0.02685267  0.74977668  0.43834113     1.04300
C1121       C  0.00004408  0.74982264  0.40129688     0.92000
C1122       C  0.00013476  0.74984418  0.47551607     0.91200
C1123       C  0.00010579  0.80947179  0.43833668     0.83300
C1124       C  0.00003670  0.69013757  0.43831661     0.89600
O1125       O  0.22498784  0.49969009  0.41013354    -0.74200
O1126       O  0.22500630  0.49998051  0.46654520    -0.75100
O1127       O  0.22509720  0.54511989  0.43821160    -0.63800
O1128       O  0.22509162  0.95453159  0.43841744    -0.72200
O1129       O  0.27513160  0.95443924  0.43830239    -0.71700
O1130       O  0.27513914  0.54502428  0.43826917    -0.63000
O1131       O  0.27503954  0.49983340  0.46654840    -0.75500
O1132       O  0.27511389  0.49967486  0.41013046    -0.74300
Cu1133     Cu  0.22326769  0.49983241  0.43832653     1.04600
Cu1134     Cu  0.27680622  0.49973309  0.43832875     1.04300
C1135       C  0.25005574  0.49968656  0.40125895     0.92000
C1136       C  0.25001465  0.49995686  0.47550163     0.91200
C1137       C  0.25013463  0.55944162  0.43820040     0.83300
C1138       C  0.25009599  0.94011157  0.43835251     0.89600
O1139       O  0.22505075  0.74979849  0.41025228    -0.74200
O1140       O  0.22507293  0.74972773  0.46662275    -0.75100
O1141       O  0.22503274  0.79506530  0.43847027    -0.63800
O1142       O  0.22513748  0.70447049  0.43838561    -0.72200
O1143       O  0.27517940  0.70446525  0.43842659    -0.71700
O1144       O  0.27507421  0.79505611  0.43842525    -0.63000
O1145       O  0.27511257  0.74978838  0.46661512    -0.75500
O1146       O  0.27517683  0.74977300  0.41023460    -0.74300
Cu1147     Cu  0.22333418  0.74976131  0.43843741     1.04600
Cu1148     Cu  0.27687619  0.74976669  0.43842888     1.04300
C1149       C  0.25011147  0.74980020  0.40137004     0.92000
C1150       C  0.25008926  0.74978998  0.47556202     0.91200
C1151       C  0.25004424  0.80943301  0.43843983     0.83300
C1152       C  0.25016930  0.69009697  0.43837023     0.89600
O1153       O  0.00010820  0.97519508  0.06578934    -0.74200
O1154       O  0.00004301  0.97520967  0.12215778    -0.75100
O1155       O  0.45476578  0.97526824  0.09399504    -0.63800
O1156       O  0.04537122  0.97522543  0.09395792    -0.72200
O1157       O  0.04531878  0.52524305  0.09393678    -0.71700
O1158       O  0.45472147  0.52526009  0.09393890    -0.63000
O1159       O  0.00002703  0.52533388  0.12216362    -0.75500
O1160       O  0.99999391  0.52524265  0.06576998    -0.74300
Cu1161     Cu  0.00007540  0.97347959  0.09397036     1.04600
Cu1162     Cu  0.00002096  0.52702348  0.09395520     1.04300
C1163       C  0.00005268  0.50020744  0.05684397     0.92000
C1164       C  0.99999428  0.50027644  0.13104400     0.91200
C1165       C  0.44037167  0.50024208  0.09397701     0.83300
C1166       C  0.05970321  0.50021836  0.09396347     0.89600
O1167       O  0.00030101  0.72525881  0.06591788    -0.74200
O1168       O  0.00017352  0.72515860  0.12227300    -0.75100
O1169       O  0.45493726  0.72445448  0.09416838    -0.63800
O1170       O  0.04553090  0.72579651  0.09415506    -0.72200
O1171       O  0.04513524  0.77583314  0.09421072    -0.71700
O1172       O  0.45453629  0.77449104  0.09405642    -0.63000
O1173       O  0.99969044  0.77528206  0.12230203    -0.75500
O1174       O  0.00000644  0.77529310  0.06591045    -0.74300
Cu1175     Cu  0.00026549  0.72348958  0.09410544     1.04600
Cu1176     Cu  0.99981234  0.77702664  0.09411395     1.04300
C1177       C  0.00019094  0.75026932  0.05696803     0.92000
C1178       C  0.99990785  0.75020551  0.13115593     0.91200
C1179       C  0.44036547  0.74936419  0.09414046     0.83300
C1180       C  0.05970486  0.75092225  0.09422694     0.89600
O1181       O  0.25033349  0.97516478  0.06600968    -0.74200
O1182       O  0.24992712  0.97527056  0.12239329    -0.75100
O1183       O  0.20480532  0.97523247  0.09411919    -0.63800
O1184       O  0.29540011  0.97528167  0.09434736    -0.72200
O1185       O  0.29530259  0.52526674  0.09413752    -0.71700
O1186       O  0.20471177  0.52522378  0.09423808    -0.63000
O1187       O  0.25005742  0.52529529  0.12237724    -0.75500
O1188       O  0.24992445  0.52522397  0.06597378    -0.74300
Cu1189     Cu  0.25011628  0.97350000  0.09421855     1.04600
Cu1190     Cu  0.24999778  0.52699242  0.09418296     1.04300
C1191       C  0.25015701  0.50019748  0.05703304     0.92000
C1192       C  0.24994367  0.50023819  0.13125244     0.91200
C1193       C  0.19037268  0.50019999  0.09416047     0.83300
C1194       C  0.30970850  0.50025485  0.09425651     0.89600
O1195       O  0.25007655  0.72514026  0.12215226    -0.74200
O1196       O  0.24916679  0.72510148  0.06576140    -0.75100
O1197       O  0.29509275  0.72452372  0.09374057    -0.63800
O1198       O  0.20451486  0.72576028  0.09422464    -0.72200
O1199       O  0.20497503  0.77578969  0.09368270    -0.71700
O1200       O  0.29555834  0.77455515  0.09422098    -0.63000
O1201       O  0.25099011  0.77514647  0.06574149    -0.75500
O1202       O  0.24987901  0.77526128  0.12213953    -0.74300
Cu1203     Cu  0.24970361  0.72338945  0.09396228     1.04600
Cu1204     Cu  0.25036376  0.77693179  0.09393817     1.04300
C1205       C  0.24994712  0.75020765  0.13102193     0.92000
C1206       C  0.25008503  0.75011335  0.05683796     0.91200
C1207       C  0.30969653  0.74939800  0.09402131     0.83300
C1208       C  0.19037414  0.75091383  0.09400018     0.89600
O1209       O  0.45447899  0.52518589  0.18846063    -0.74200
O1210       O  0.04506435  0.52522473  0.18908422    -0.75100
O1211       O  0.00022114  0.52530565  0.16055118    -0.63800
O1212       O  0.99887794  0.52519122  0.21697761    -0.72200
O1213       O  0.00082951  0.97507088  0.21692535    -0.71700
O1214       O  0.99964104  0.97518061  0.16050026    -0.63000
O1215       O  0.04528663  0.97517849  0.18841209    -0.75500
O1216       O  0.45468594  0.97515906  0.18900749    -0.74300
Cu1217     Cu  0.99968240  0.52697349  0.18876733     1.04600
Cu1218     Cu  0.00008544  0.97339374  0.18870229     1.04300
C1219       C  0.44020183  0.50014333  0.18874414     0.92000
C1220       C  0.05953287  0.50023636  0.18877407     0.91200
C1221       C  0.99994066  0.50026172  0.15165458     0.83300
C1222       C  0.99985592  0.50012866  0.22582663     0.89600
O1223       O  0.45442018  0.77505298  0.18849332    -0.74200
O1224       O  0.04499108  0.77519329  0.18916916    -0.75100
O1225       O  0.00014317  0.77518322  0.16064666    -0.63800
O1226       O  0.99879977  0.77492934  0.21698544    -0.72200
O1227       O  0.00083962  0.72484017  0.21692180    -0.71700
O1228       O  0.99958846  0.72506014  0.16058041    -0.63000
O1229       O  0.04528373  0.72516469  0.18845267    -0.75500
O1230       O  0.45470372  0.72502199  0.18914271    -0.74300
Cu1231     Cu  0.99960028  0.77678315  0.18882522     1.04600
Cu1232     Cu  0.00008243  0.72321912  0.18875338     1.04300
C1233       C  0.44019093  0.74998400  0.18883549     0.92000
C1234       C  0.05950930  0.75023559  0.18884376     0.91200
C1235       C  0.99987242  0.75015134  0.15174547     0.83300
C1236       C  0.99982497  0.74985782  0.22581974     0.89600
O1237       O  0.25025301  0.52530058  0.16071670    -0.74200
O1238       O  0.24885296  0.52532419  0.21703563    -0.75100
O1239       O  0.29507200  0.52527518  0.18925292    -0.63800
O1240       O  0.20447185  0.52523693  0.18857285    -0.72200
O1241       O  0.20468454  0.97519337  0.18914601    -0.71700
O1242       O  0.29526274  0.97523579  0.18858270    -0.63000
O1243       O  0.25074006  0.97512934  0.21700754    -0.75500
O1244       O  0.24962109  0.97525431  0.16069240    -0.74300
Cu1245     Cu  0.24968293  0.52703351  0.18889183     1.04600
Cu1246     Cu  0.25005669  0.97345619  0.18885546     1.04300
C1247       C  0.24990836  0.50024120  0.15184459     0.92000
C1248       C  0.24982238  0.50027560  0.22588982     0.91200
C1249       C  0.30952674  0.50027812  0.18892042     0.83300
C1250       C  0.19019537  0.50019289  0.18890213     0.89600
O1251       O  0.20462215  0.72521250  0.18897413    -0.74200
O1252       O  0.29521140  0.72503024  0.18844552    -0.75100
O1253       O  0.25068462  0.72503057  0.21688548    -0.63800
O1254       O  0.24960111  0.72513821  0.16049421    -0.72200
O1255       O  0.25012352  0.77525617  0.16051885    -0.71700
O1256       O  0.24904562  0.77513084  0.21692446    -0.63000
O1257       O  0.29509489  0.77506639  0.18896206    -0.75500
O1258       O  0.20449671  0.77524925  0.18852050    -0.74300
Cu1259     Cu  0.24999978  0.72335880  0.18869248     1.04600
Cu1260     Cu  0.24971705  0.77692307  0.18872805     1.04300
C1261       C  0.19018774  0.75022406  0.18879045     0.92000
C1262       C  0.30952324  0.75005199  0.18872646     0.91200
C1263       C  0.24986348  0.75006405  0.22577843     0.83300
C1264       C  0.24988372  0.75020588  0.15162981     0.89600
O1265       O  0.00013936  0.97459210  0.91025509    -0.74200
O1266       O  0.00010125  0.97488076  0.96662841    -0.75100
O1267       O  0.45478988  0.97466561  0.93843913    -0.63800
O1268       O  0.04538904  0.97484468  0.93845203    -0.72200
O1269       O  0.04526419  0.52491860  0.93837606    -0.71700
O1270       O  0.45470044  0.52472313  0.93835660    -0.63000
O1271       O  0.99990469  0.52494447  0.96656859    -0.75500
O1272       O  0.99997688  0.52471132  0.91020832    -0.74300
Cu1273     Cu  0.00010848  0.97300578  0.93844942     1.04600
Cu1274     Cu  0.99995163  0.52655729  0.93838243     1.04300
C1275       C  0.00007634  0.99962872  0.90135682     0.92000
C1276       C  0.00000025  0.99993453  0.97553418     0.91200
C1277       C  0.44036007  0.99966559  0.93836296     0.83300
C1278       C  0.05970120  0.99988500  0.93839365     0.89600
O1279       O  0.00016672  0.72466809  0.91033067    -0.74200
O1280       O  0.00010585  0.72499220  0.96671729    -0.75100
O1281       O  0.45486293  0.72480416  0.93846521    -0.63800
O1282       O  0.04544295  0.72504250  0.93852410    -0.72200
O1283       O  0.04527185  0.77507944  0.93827330    -0.71700
O1284       O  0.45473626  0.77484082  0.93860856    -0.63000
O1285       O  0.00019693  0.77502602  0.96663848    -0.75500
O1286       O  0.99977861  0.77478927  0.91024652    -0.74300
Cu1287     Cu  0.00014890  0.72310623  0.93852589     1.04600
Cu1288     Cu  0.99997339  0.77664293  0.93843066     1.04300
C1289       C  0.99995252  0.74968756  0.90141561     0.92000
C1290       C  0.00018390  0.75004643  0.97562510     0.91200
C1291       C  0.44042553  0.74979693  0.93853367     0.83300
C1292       C  0.05972862  0.75010115  0.93835970     0.89600
O1293       O  0.20473795  0.97489402  0.93854308    -0.74200
O1294       O  0.29531839  0.97471822  0.93838139    -0.75100
O1295       O  0.25017448  0.97485876  0.96670680    -0.63800
O1296       O  0.24994434  0.97472615  0.91027653    -0.72200
O1297       O  0.25010061  0.52480911  0.91023646    -0.71700
O1298       O  0.24995108  0.52500572  0.96665776    -0.63000
O1299       O  0.29534370  0.52480324  0.93844105    -0.75500
O1300       O  0.20474372  0.52497983  0.93837129    -0.74300
Cu1301     Cu  0.25003585  0.97306012  0.93848343     1.04600
Cu1302     Cu  0.25003886  0.52663891  0.93843027     1.04300
C1303       C  0.19036113  0.99992352  0.93843255     0.92000
C1304       C  0.30969133  0.99972050  0.93836856     0.91200
C1305       C  0.25006713  0.99989486  0.97564058     0.83300
C1306       C  0.25001210  0.99977503  0.90138904     0.89600
O1307       O  0.24991614  0.77499506  0.91038634    -0.74200
O1308       O  0.25068656  0.77508251  0.96680048    -0.75100
O1309       O  0.29544676  0.77486304  0.93840461    -0.63800
O1310       O  0.20484070  0.77519464  0.93875803    -0.72200
O1311       O  0.20469179  0.72515712  0.93839856    -0.71700
O1312       O  0.29528681  0.72482947  0.93886727    -0.63000
O1313       O  0.24933720  0.72502049  0.96682964    -0.75500
O1314       O  0.25031836  0.72487708  0.91043451    -0.74300
Cu1315     Cu  0.25021194  0.77677873  0.93859201     1.04600
Cu1316     Cu  0.24991951  0.72323128  0.93863803     1.04300
C1317       C  0.25011748  0.74991031  0.90153140     0.92000
C1318       C  0.25000797  0.75006435  0.97572746     0.91200
C1319       C  0.30973987  0.74979718  0.93862514     0.83300
C1320       C  0.19039541  0.75022278  0.93853634     0.89600
O1321       O  0.02514775  0.95498007  0.59402403    -0.74200
O1322       O  0.02513091  0.54557276  0.59407528    -0.75100
O1323       O  0.02513235  0.50020755  0.62219329    -0.63800
O1324       O  0.02514991  0.50033837  0.56585224    -0.72200
O1325       O  0.47510187  0.50030541  0.56588698    -0.71700
O1326       O  0.47500212  0.50033605  0.62221106    -0.63000
O1327       O  0.47507690  0.54562050  0.59404920    -0.75500
O1328       O  0.47508416  0.95503325  0.59404520    -0.74300
Cu1329     Cu  0.02688122  0.50027453  0.59402679     1.04600
Cu1330     Cu  0.47332526  0.00033099  0.59402469     1.04300
C1331       C  0.00012821  0.94062759  0.59406607     0.92000
C1332       C  0.00010779  0.55996174  0.59406973     0.91200
C1333       C  0.00005361  0.50024981  0.63105275     0.83300
C1334       C  0.00012643  0.50030165  0.55692209     0.89600
O1335       O  0.47494706  0.75027294  0.62224592    -0.74200
O1336       O  0.47509107  0.75033985  0.56584995    -0.75100
O1337       O  0.47504381  0.70502394  0.59404409    -0.63800
O1338       O  0.47505800  0.79562017  0.59409550    -0.72200
O1339       O  0.02509517  0.79555728  0.59409677    -0.71700
O1340       O  0.02508099  0.70497806  0.59409739    -0.63000
O1341       O  0.02515409  0.75025775  0.56586125    -0.75500
O1342       O  0.02501252  0.75024360  0.62227905    -0.74300
Cu1343     Cu  0.47329695  0.75032054  0.59405529     1.04600
Cu1344     Cu  0.02682601  0.75026217  0.59408234     1.04300
C1345       C  0.99991947  0.75025687  0.63112971     0.92000
C1346       C  0.00015151  0.75024903  0.55689857     0.91200
C1347       C  0.00006321  0.69062635  0.59410393     0.83300
C1348       C  0.00008111  0.80995984  0.59409259     0.89600
O1349       O  0.22484397  0.00022847  0.62228136    -0.74200
O1350       O  0.22519192  0.00021399  0.56584612    -0.75100
O1351       O  0.22520687  0.95493791  0.59408127    -0.63800
O1352       O  0.22468102  0.54551652  0.59409691    -0.72200
O1353       O  0.27472109  0.54559271  0.59415327    -0.71700
O1354       O  0.27524770  0.95500613  0.59410077    -0.63000
O1355       O  0.27492715  0.50037907  0.56587231    -0.75500
O1356       O  0.27497446  0.50021608  0.62229937    -0.74300
Cu1357     Cu  0.22328555  0.00021956  0.59406404     1.04600
Cu1358     Cu  0.27667514  0.50031167  0.59409504     1.04300
C1359       C  0.24987004  0.00018530  0.63119116     0.92000
C1360       C  0.24991754  0.50028366  0.55691744     0.91200
C1361       C  0.25026025  0.94060079  0.59410342     0.83300
C1362       C  0.24966652  0.55992751  0.59413215     0.89600
O1363       O  0.22502773  0.75037264  0.56581656    -0.74200
O1364       O  0.22495890  0.75029110  0.62219790    -0.75100
O1365       O  0.22519775  0.79564120  0.59402379    -0.63800
O1366       O  0.22480286  0.70506047  0.59397249    -0.72200
O1367       O  0.27484462  0.70487329  0.59395325    -0.71700
O1368       O  0.27523859  0.79547665  0.59405877    -0.63000
O1369       O  0.27508346  0.75007359  0.62219536    -0.75500
O1370       O  0.27506742  0.75024879  0.56581549    -0.74300
Cu1371     Cu  0.22325835  0.75035822  0.59400124     1.04600
Cu1372     Cu  0.27679951  0.75016123  0.59400263     1.04300
C1373       C  0.25005383  0.75030058  0.55687291     0.92000
C1374       C  0.25001640  0.75013279  0.63107181     0.91200
C1375       C  0.25025353  0.80993159  0.59405755     0.83300
C1376       C  0.24977893  0.69059592  0.59396709     0.89600
C1377       C  0.27763334  0.89102224  0.59419316    -0.14600
C1378       C  0.25030793  0.90717363  0.59412950     0.07600
C1379       C  0.22299565  0.89106218  0.59407958    -0.14600
C1380       C  0.22299264  0.85952214  0.59406228    -0.14600
C1381       C  0.25030654  0.84336138  0.59409921     0.07600
C1382       C  0.27763023  0.85946574  0.59417640    -0.14600
H1383       H  0.29906117  0.90274949  0.59424563     0.11600
H1384       H  0.20155013  0.90281554  0.59403992     0.11600
H1385       H  0.20155582  0.84781224  0.59401068     0.11600
H1386       H  0.29906742  0.84769582  0.59421722     0.11600
C1387       C  0.27694639  0.60944942  0.59454976    -0.14600
C1388       C  0.24962983  0.59335735  0.59412708     0.07600
C1389       C  0.22232776  0.60953030  0.59366229    -0.14600
C1390       C  0.22236175  0.64108816  0.59360142    -0.14600
C1391       C  0.24969396  0.65716913  0.59400650     0.07600
C1392       C  0.27698054  0.64098777  0.59448729    -0.14600
H1393       H  0.29837404  0.59768062  0.59493163     0.11600
H1394       H  0.20089690  0.59781807  0.59332107     0.11600
H1395       H  0.20094417  0.65287719  0.59322219     0.11600
H1396       H  0.29842055  0.65268070  0.59483097     0.11600
C1397       C  0.02742479  0.85948749  0.59414028    -0.14600
C1398       C  0.00009951  0.84338863  0.59413408     0.07600
C1399       C  0.47277639  0.85955844  0.59420073    -0.14600
C1400       C  0.47278504  0.89110671  0.59416688    -0.14600
C1401       C  0.00012464  0.90720023  0.59411342     0.07600
C1402       C  0.02743980  0.89103666  0.59412885    -0.14600
H1403       H  0.04886274  0.84771750  0.59413815     0.11600
H1404       H  0.45134172  0.84784365  0.59422123     0.11600
H1405       H  0.45134463  0.90287106  0.59416634     0.11600
H1406       H  0.04887571  0.90274976  0.59412047     0.11600
C1407       C  0.47276694  0.60954713  0.59387804    -0.14600
C1408       C  0.00010094  0.59338963  0.59412859     0.07600
C1409       C  0.02740874  0.60950785  0.59443287    -0.14600
C1410       C  0.02739801  0.64105610  0.59444714    -0.14600
C1411       C  0.00007438  0.65719989  0.59415520     0.07600
C1412       C  0.47276055  0.64109382  0.59387154    -0.14600
H1413       H  0.45134100  0.59782165  0.59365842     0.11600
H1414       H  0.04885253  0.59775398  0.59465379     0.11600
H1415       H  0.04882222  0.65278431  0.59467706     0.11600
H1416       H  0.45131844  0.65284979  0.59364800     0.11600
C1417       C  0.39083151  0.77705720  0.93893997    -0.14600
C1418       C  0.40699225  0.74975454  0.93851984     0.07600
C1419       C  0.39088367  0.72244093  0.93808800    -0.14600
C1420       C  0.35932386  0.72243195  0.93812411    -0.14600
C1421       C  0.34317211  0.74974116  0.93857966     0.07600
C1422       C  0.35928835  0.77704833  0.93896655    -0.14600
H1423       H  0.40254391  0.79848669  0.93927185     0.11600
H1424       H  0.40265468  0.70101270  0.93772414     0.11600
H1425       H  0.34759235  0.70101346  0.93778028     0.11600
H1426       H  0.34753440  0.79848757  0.93932061     0.11600
C1427       C  0.10933693  0.72294322  0.93939984    -0.14600
C1428       C  0.09315626  0.75017954  0.93829399     0.07600
C1429       C  0.10923842  0.77746075  0.93717697    -0.14600
C1430       C  0.14079960  0.77750406  0.93724546    -0.14600
C1431       C  0.15696825  0.75026143  0.93841912     0.07600
C1432       C  0.14087592  0.72298589  0.93945867    -0.14600
H1433       H  0.09764216  0.70154397  0.94028418     0.11600
H1434       H  0.09744542  0.79883242  0.93625052     0.11600
H1435       H  0.15251965  0.79888956  0.93635841     0.11600
H1436       H  0.15264698  0.70160168  0.94038423     0.11600
C1437       C  0.39081237  0.97233851  0.93815713    -0.14600
C1438       C  0.40693139  0.99964792  0.93827322     0.07600
C1439       C  0.39081194  0.52701104  0.93832673    -0.14600
C1440       C  0.35926692  0.52703246  0.93832485    -0.14600
C1441       C  0.34311870  0.99968545  0.93826299     0.07600
C1442       C  0.35925868  0.97235477  0.93814900    -0.14600
H1443       H  0.40256904  0.95089452  0.93809535     0.11600
H1444       H  0.40254272  0.54843610  0.93838665     0.11600
H1445       H  0.34752175  0.54848327  0.93838430     0.11600
H1446       H  0.34752334  0.95093198  0.93808444     0.11600
C1447       C  0.14083252  0.97263664  0.93896219    -0.14600
C1448       C  0.15693519  0.99993534  0.93834854     0.07600
C1449       C  0.14078487  0.52728149  0.93764859    -0.14600
C1450       C  0.10922961  0.52726951  0.93764754    -0.14600
C1451       C  0.09312650  0.99991928  0.93833705     0.07600
C1452       C  0.10928865  0.97262606  0.93895826    -0.14600
H1453       H  0.15259706  0.95121278  0.93948883     0.11600
H1454       H  0.15250501  0.54869714  0.93712003     0.11600
H1455       H  0.09745404  0.54868664  0.93711638     0.11600
H1456       H  0.09757674  0.95120686  0.93948162     0.11600
C1457       C  0.39063923  0.72265772  0.18943984    -0.14600
C1458       C  0.40676219  0.74994178  0.18886504     0.07600
C1459       C  0.39062074  0.77726136  0.18829723    -0.14600
C1460       C  0.35907780  0.77729841  0.18826989    -0.14600
C1461       C  0.34295000  0.75002116  0.18879420     0.07600
C1462       C  0.35908354  0.72269414  0.18939544    -0.14600
H1463       H  0.40239310  0.70122518  0.18991294     0.11600
H1464       H  0.40234972  0.79867591  0.18785013     0.11600
H1465       H  0.34733521  0.79873648  0.18779675     0.11600
H1466       H  0.34733943  0.70128769  0.18984815     0.11600
C1467       C  0.10905112  0.77758797  0.18940136    -0.14600
C1468       C  0.09294020  0.75029086  0.18891959     0.07600
C1469       C  0.10909665  0.72297344  0.18849796    -0.14600
C1470       C  0.14064068  0.72295158  0.18849407    -0.14600
C1471       C  0.15675744  0.75024202  0.18889358     0.07600
C1472       C  0.14060841  0.77756671  0.18938039    -0.14600
H1473       H  0.09728638  0.79902086  0.18976911     0.11600
H1474       H  0.09737847  0.70154861  0.18814278     0.11600
H1475       H  0.15239338  0.70151260  0.18812685     0.11600
H1476       H  0.15234098  0.79898306  0.18974189     0.11600
C1477       C  0.39065739  0.97290263  0.18795211    -0.14600
C1478       C  0.40677320  0.50014911  0.18880210     0.07600
C1479       C  0.39065039  0.52745372  0.18976762    -0.14600
C1480       C  0.35910011  0.52750571  0.18983835    -0.14600
C1481       C  0.34295759  0.50026053  0.18892131     0.07600
C1482       C  0.35910686  0.97295044  0.18801858    -0.14600
H1483       H  0.40239948  0.95148662  0.18716156     0.11600
H1484       H  0.40240105  0.54883572  0.19050698     0.11600
H1485       H  0.34736472  0.54892530  0.19061470     0.11600
H1486       H  0.34736079  0.95156574  0.18727847     0.11600
C1487       C  0.10913101  0.97289746  0.18861166    -0.14600
C1488       C  0.09295911  0.50024364  0.18883324     0.07600
C1489       C  0.10907617  0.52754058  0.18908203    -0.14600
C1490       C  0.14062431  0.52751182  0.18911674    -0.14600
C1491       C  0.15676890  0.50018002  0.18891926     0.07600
C1492       C  0.14067976  0.97286955  0.18865343    -0.14600
H1493       H  0.09740220  0.95147242  0.18843076     0.11600
H1494       H  0.09732231  0.54898531  0.18923631     0.11600
H1495       H  0.15235430  0.54893568  0.18930256     0.11600
H1496       H  0.15243492  0.95142575  0.18849153     0.11600
C1497       C  0.23746261  0.72584517  0.02611348    -0.14600
C1498       C  0.25008270  0.75009214  0.03609587     0.07600
C1499       C  0.26267587  0.77433181  0.02608890    -0.14600
C1500       C  0.26264079  0.77432860  0.00644790    -0.14600
C1501       C  0.25001778  0.75008402  0.99646738     0.07600
C1502       C  0.23743505  0.72583877  0.00647275    -0.14600
H1503       H  0.22734933  0.70702046  0.03350193     0.11600
H1504       H  0.27280739  0.79316142  0.03345768     0.11600
H1505       H  0.27275247  0.79315075  0.99905693     0.11600
H1506       H  0.22730840  0.70700771  0.99910172     0.11600
C1507       C  0.25255939  0.97283845  0.02619173    -0.14600
C1508       C  0.25021088  0.50016804  0.03621286     0.07600
C1509       C  0.24782945  0.52736020  0.02614565    -0.14600
C1510       C  0.24781139  0.52731874  0.00649841    -0.14600
C1511       C  0.25017060  0.50008352  0.99646744     0.07600
C1512       C  0.25253166  0.97277375  0.00654454    -0.14600
H1513       H  0.25451828  0.95151656  0.03352612     0.11600
H1514       H  0.24588758  0.54872122  0.03344254     0.11600
H1515       H  0.24585827  0.54864766  0.99917288     0.11600
H1516       H  0.25447419  0.95140674  0.99925729     0.11600
C1517       C  0.39083472  0.72187186  0.09466908    -0.14600
C1518       C  0.40693748  0.74919729  0.09420169     0.07600
C1519       C  0.39077624  0.77648718  0.09377342    -0.14600
C1520       C  0.35925725  0.77648588  0.09374007    -0.14600
C1521       C  0.34312441  0.74919903  0.09412734     0.07600
C1522       C  0.35925498  0.72187027  0.09462632    -0.14600
H1523       H  0.40262174  0.70045235  0.09505188     0.11600
H1524       H  0.40247188  0.79792364  0.09342322     0.11600
H1525       H  0.34753305  0.79793764  0.09336317     0.11600
H1526       H  0.34749571  0.70046671  0.09498436     0.11600
C1527       C  0.10930231  0.72379946  0.09446272    -0.14600
C1528       C  0.09313358  0.75109268  0.09430339     0.07600
C1529       C  0.10922968  0.77843142  0.09415802    -0.14600
C1530       C  0.14080791  0.77843973  0.09407143    -0.14600
C1531       C  0.15694673  0.75110555  0.09414294     0.07600
C1532       C  0.14082203  0.72380796  0.09438524    -0.14600
H1533       H  0.09761170  0.70235340  0.09461372     0.11600
H1534       H  0.09743814  0.79985619  0.09406416     0.11600
H1535       H  0.15255952  0.79985528  0.09392750     0.11600
H1536       H  0.15255261  0.70235127  0.09448382     0.11600
C1537       C  0.99888241  0.72292576  0.02614374    -0.14600
C1538       C  0.00025715  0.75023298  0.03615943     0.07600
C1539       C  0.50162213  0.77721478  0.02612636    -0.14600
C1540       C  0.50164871  0.77721476  0.00648838    -0.14600
C1541       C  0.00024794  0.75012096  0.99643544     0.07600
C1542       C  0.99887452  0.72287019  0.00650691    -0.14600
H1543       H  0.99774145  0.70153958  0.03347300     0.11600
H1544       H  0.50273796  0.79862097  0.03343617     0.11600
H1545       H  0.50277893  0.79862077  0.99918107     0.11600
H1546       H  0.99773177  0.70144358  0.99922179     0.11600
C1547       C  0.39079029  0.52751855  0.09304933    -0.14600
C1548       C  0.40694513  0.50024833  0.09405929     0.07600
C1549       C  0.39085584  0.97305310  0.09521519    -0.14600
C1550       C  0.35930949  0.97305919  0.09530475    -0.14600
C1551       C  0.34313513  0.50026468  0.09425288     0.07600
C1552       C  0.35924033  0.52752434  0.09314722    -0.14600
H1553       H  0.40251255  0.54889947  0.09214512     0.11600
H1554       H  0.40262005  0.95165742  0.09606532     0.11600
H1555       H  0.34758825  0.95167679  0.09620994     0.11600
H1556       H  0.34747334  0.54892055  0.09230547     0.11600
C1557       C  0.10924376  0.52751961  0.09418448    -0.14600
C1558       C  0.09313116  0.50020847  0.09399886     0.07600
C1559       C  0.10930889  0.97292716  0.09386241    -0.14600
C1560       C  0.14085928  0.97292755  0.09394131    -0.14600
C1561       C  0.15694376  0.50019565  0.09412981     0.07600
C1562       C  0.14079156  0.52751563  0.09425367    -0.14600
H1563       H  0.09748518  0.54896257  0.09428709     0.11600
H1564       H  0.09758810  0.95149709  0.09371583     0.11600
H1565       H  0.15262248  0.95148787  0.09384640     0.11600
H1566       H  0.15251403  0.54894510  0.09439982     0.11600
C1567       C  0.99836574  0.52740094  0.02598445    -0.14600
C1568       C  0.00005347  0.50016001  0.03604704     0.07600
C1569       C  0.50170201  0.97285215  0.02604005    -0.14600
C1570       C  0.50167571  0.97279151  0.00640808    -0.14600
C1571       C  0.00002279  0.50004023  0.99634400     0.07600
C1572       C  0.99834948  0.52734171  0.00634969    -0.14600
H1573       H  0.99700005  0.54881376  0.03327417     0.11600
H1574       H  0.50308078  0.95148102  0.03337157     0.11600
H1575       H  0.50303812  0.95137672  0.99912192     0.11600
H1576       H  0.99697482  0.54871113  0.99901545     0.11600
C1577       C  0.27739757  0.75021344  0.50639571    -0.14600
C1578       C  0.25008160  0.74990937  0.49636290     0.07600
C1579       C  0.22275763  0.74978121  0.50640473    -0.14600
C1580       C  0.22275003  0.74994030  0.52603894    -0.14600
C1581       C  0.25006569  0.75022733  0.53607198     0.07600
C1582       C  0.27739017  0.75036996  0.52603040    -0.14600
H1583       H  0.29883724  0.75033790  0.49908324     0.11600
H1584       H  0.20132421  0.74955337  0.49910008     0.11600
H1585       H  0.20131045  0.74981435  0.53335082     0.11600
H1586       H  0.29882260  0.75059734  0.53333538     0.11600
C1587       C  0.22274085  0.89058060  0.43860664    -0.14600
C1588       C  0.25006429  0.90667929  0.43834129     0.07600
C1589       C  0.27737178  0.89050984  0.43808002    -0.14600
C1590       C  0.27735620  0.85896340  0.43811403    -0.14600
C1591       C  0.25003766  0.84286285  0.43840404     0.07600
C1592       C  0.22272527  0.85902834  0.43863952    -0.14600
H1593       H  0.20130630  0.90235367  0.43880693     0.11600
H1594       H  0.29880697  0.90221723  0.43785391     0.11600
H1595       H  0.29879287  0.84719646  0.43790914     0.11600
H1596       H  0.20129207  0.84731374  0.43886127     0.11600
C1597       C  0.27747189  0.60896099  0.43880265    -0.14600
C1598       C  0.25016682  0.59286516  0.43813894     0.07600
C1599       C  0.22287539  0.60902790  0.43747498    -0.14600
C1600       C  0.22288514  0.64057187  0.43753974    -0.14600
C1601       C  0.25018209  0.65667127  0.43826423     0.07600
C1602       C  0.27748151  0.64051059  0.43886712    -0.14600
H1603       H  0.29889106  0.59718885  0.43932433     0.11600
H1604       H  0.20145739  0.59731686  0.43691504     0.11600
H1605       H  0.20146254  0.65233838  0.43701928     0.11600
H1606       H  0.29889701  0.65222682  0.43942831     0.11600
C1607       C  0.27765663  0.00033932  0.50638826    -0.14600
C1608       C  0.24999164  0.50007700  0.49632989     0.07600
C1609       C  0.22266559  0.49995179  0.50637893    -0.14600
C1610       C  0.22263972  0.50004093  0.52602701    -0.14600
C1611       C  0.24993920  0.50026112  0.53608652     0.07600
C1612       C  0.27763490  0.00044771  0.52604047    -0.14600
H1613       H  0.29909800  0.00046027  0.49907849     0.11600
H1614       H  0.20123865  0.49976552  0.49906760     0.11600
H1615       H  0.20119327  0.49991847  0.53333055     0.11600
H1616       H  0.29905993  0.00063965  0.53335405     0.11600
C1617       C  0.02747271  0.75022901  0.50637317    -0.14600
C1618       C  0.00015307  0.74993149  0.49633602     0.07600
C1619       C  0.47281627  0.74980428  0.50639634    -0.14600
C1620       C  0.47281625  0.74993667  0.52603918    -0.14600
C1621       C  0.00016629  0.75016754  0.53607760     0.07600
C1622       C  0.02747952  0.75034612  0.52601868    -0.14600
H1623       H  0.04890634  0.75038463  0.49905496     0.11600
H1624       H  0.45137970  0.74956211  0.49909619     0.11600
H1625       H  0.45137772  0.74978197  0.53335219     0.11600
H1626       H  0.04891456  0.75057955  0.53331912     0.11600
C1627       C  0.47277925  0.89061444  0.43790761    -0.14600
C1628       C  0.00005822  0.90671295  0.43848919     0.07600
C1629       C  0.02737652  0.89057142  0.43896246    -0.14600
C1630       C  0.02739469  0.85902157  0.43888504    -0.14600
C1631       C  0.00009917  0.84289983  0.43833701     0.07600
C1632       C  0.47279325  0.85906818  0.43783431    -0.14600
H1633       H  0.45134248  0.90236615  0.43749585     0.11600
H1634       H  0.04878938  0.90230321  0.43941485     0.11600
H1635       H  0.04883129  0.84726939  0.43928861     0.11600
H1636       H  0.45137791  0.84734113  0.43737621     0.11600
C1637       C  0.47265919  0.60908865  0.43839220    -0.14600
C1638       C  0.99996039  0.59290210  0.43836930     0.07600
C1639       C  0.02728890  0.60899200  0.43823239    -0.14600
C1640       C  0.02731487  0.64053738  0.43818621    -0.14600
C1641       C  0.00000807  0.65671027  0.43827794     0.07600
C1642       C  0.47267989  0.64063806  0.43834200    -0.14600
H1643       H  0.45122165  0.59737857  0.43847682     0.11600
H1644       H  0.04872401  0.59721786  0.43817659     0.11600
H1645       H  0.04875575  0.65224108  0.43809994     0.11600
H1646       H  0.45124510  0.65241143  0.43839341     0.11600
C1647       C  0.47274764  0.49932132  0.50651318    -0.14600
C1648       C  0.00004063  0.50004617  0.49644216     0.07600
C1649       C  0.02736770  0.00094558  0.50646344    -0.14600
C1650       C  0.02740094  0.00104440  0.52609432    -0.14600
C1651       C  0.00010531  0.50026335  0.53613321     0.07600
C1652       C  0.47277712  0.49943424  0.52614316    -0.14600
H1653       H  0.45131218  0.49860883  0.49922360     0.11600
H1654       H  0.04878347  0.00158312  0.49913367     0.11600
H1655       H  0.04883558  0.00174935  0.53338383     0.11600
H1656       H  0.45136059  0.49879761  0.53347089     0.11600
C1657       C  0.26955078  0.73096503  0.27600017    -0.14600
C1658       C  0.24988485  0.74997581  0.28596434     0.07600
C1659       C  0.23019307  0.76899926  0.27604370    -0.14600
C1660       C  0.23057799  0.76942037  0.25640119    -0.14600
C1661       C  0.24985929  0.75002393  0.24643949     0.07600
C1662       C  0.26914003  0.73059115  0.25635856    -0.14600
H1663       H  0.28481415  0.71605599  0.28342187     0.11600
H1664       H  0.21494075  0.78389203  0.28349935     0.11600
H1665       H  0.21545478  0.78449593  0.24896887     0.11600
H1666       H  0.28425547  0.71553306  0.24889348     0.11600
C1667       C  0.22254926  0.89066701  0.34365105    -0.14600
C1668       C  0.24983230  0.90681432  0.34349668     0.07600
C1669       C  0.27718576  0.89069904  0.34337848    -0.14600
C1670       C  0.27725177  0.85915242  0.34344154    -0.14600
C1671       C  0.24997066  0.84300404  0.34363623     0.07600
C1672       C  0.22261541  0.85911854  0.34373177    -0.14600
H1673       H  0.20109005  0.90239692  0.34374488     0.11600
H1674       H  0.29859973  0.90245056  0.34324252     0.11600
H1675       H  0.29871184  0.84742502  0.34335197     0.11600
H1676       H  0.20120222  0.84736533  0.34386635     0.11600
C1677       C  0.27740431  0.60914340  0.34364397    -0.14600
C1678       C  0.25010897  0.59301317  0.34362330     0.07600
C1679       C  0.22276647  0.60914635  0.34356738    -0.14600
C1680       C  0.22272372  0.64069328  0.34355686    -0.14600
C1681       C  0.25001770  0.65682407  0.34361612     0.07600
C1682       C  0.27736151  0.64069209  0.34365078    -0.14600
H1683       H  0.29885615  0.59739986  0.34367901     0.11600
H1684       H  0.20134366  0.59740865  0.34352934     0.11600
H1685       H  0.20127096  0.65243501  0.34352206     0.11600
H1686       H  0.29878351  0.65243174  0.34368347     0.11600
C1687       C  0.26917204  0.98081901  0.27604178    -0.14600
C1688       C  0.25001786  0.50021723  0.28598069     0.07600
C1689       C  0.23053743  0.51950298  0.27610728    -0.14600
C1690       C  0.23086400  0.51992002  0.25647890    -0.14600
C1691       C  0.24987909  0.50027280  0.24651645     0.07600
C1692       C  0.26876162  0.98045416  0.25641738    -0.14600
H1693       H  0.28425899  0.96573230  0.28346913     0.11600
H1694       H  0.21548352  0.53456974  0.28358965     0.11600
H1695       H  0.21590074  0.53516997  0.24906295     0.11600
H1696       H  0.28370667  0.96523308  0.24895247     0.11600
C1697       C  0.01933157  0.73052256  0.27600771    -0.14600
C1698       C  0.99996698  0.74984206  0.28596248     0.07600
C1699       C  0.48056512  0.76936596  0.27607783    -0.14600
C1700       C  0.48093096  0.76981780  0.25644421    -0.14600
C1701       C  0.99984659  0.74980935  0.24646518     0.07600
C1702       C  0.01887690  0.73011270  0.25637187    -0.14600
H1703       H  0.03440185  0.71539374  0.28343960     0.11600
H1704       H  0.46551458  0.78446781  0.28355731     0.11600
H1705       H  0.46601898  0.78509467  0.24903399     0.11600
H1706       H  0.03374745  0.71484336  0.24891097     0.11600
C1707       C  0.47265886  0.89072846  0.34408193    -0.14600
C1708       C  0.99997739  0.90683376  0.34401169     0.07600
C1709       C  0.02731680  0.89069265  0.34402691    -0.14600
C1710       C  0.02735351  0.85914148  0.34396211    -0.14600
C1711       C  0.00005715  0.84301173  0.34390339     0.07600
C1712       C  0.47269168  0.85917923  0.34404056    -0.14600
H1713       H  0.45121050  0.90247752  0.34412147     0.11600
H1714       H  0.04874048  0.90242715  0.34403225     0.11600
H1715       H  0.04880442  0.84739493  0.34393293     0.11600
H1716       H  0.45126575  0.84744698  0.34404468     0.11600
C1717       C  0.02733791  0.64069328  0.34415616    -0.14600
C1718       C  0.99999791  0.65682637  0.34392323     0.07600
C1719       C  0.47268949  0.64072408  0.34384914    -0.14600
C1720       C  0.47272741  0.60917696  0.34394974    -0.14600
C1721       C  0.00007579  0.59302472  0.34409353     0.07600
C1722       C  0.02737388  0.60914756  0.34423485    -0.14600
H1723       H  0.04876122  0.65242841  0.34423492     0.11600
H1724       H  0.45123935  0.65246825  0.34371664     0.11600
H1725       H  0.45130498  0.59744129  0.34387289     0.11600
H1726       H  0.04882355  0.59740032  0.34437088     0.11600
C1727       C  0.47812273  0.51655204  0.27608189    -0.14600
C1728       C  0.00002742  0.50009530  0.28603666     0.07600
C1729       C  0.02185195  0.98363829  0.27602184    -0.14600
C1730       C  0.02145613  0.98320847  0.25637182    -0.14600
C1731       C  0.99990395  0.50010409  0.24647903     0.07600
C1732       C  0.47841104  0.51698308  0.25643159    -0.14600
H1733       H  0.46114681  0.52947074  0.28351665     0.11600
H1734       H  0.03886122  0.97071339  0.28340877     0.11600
H1735       H  0.03829120  0.97013412  0.24888179     0.11600
H1736       H  0.46154300  0.53006690  0.24898951     0.11600
C1737       C  0.39088296  0.72269668  0.84341483    -0.14600
C1738       C  0.40696655  0.75002593  0.84373168     0.07600
C1739       C  0.39079011  0.77732321  0.84402203    -0.14600
C1740       C  0.35923454  0.77728909  0.84402714    -0.14600
C1741       C  0.34315697  0.74996213  0.84373963     0.07600
C1742       C  0.35934121  0.72266251  0.84342022    -0.14600
H1743       H  0.40265904  0.70126460  0.84315368     0.11600
H1744       H  0.40249938  0.79875467  0.84427681     0.11600
H1745       H  0.34744171  0.79870767  0.84428657     0.11600
H1746       H  0.34764968  0.70121798  0.84316375     0.11600
C1747       C  0.10924090  0.77674437  0.84392464    -0.14600
C1748       C  0.09315627  0.74941164  0.84377810     0.07600
C1749       C  0.10933798  0.72211275  0.84360928    -0.14600
C1750       C  0.14089673  0.72215132  0.84361489    -0.14600
C1751       C  0.15697179  0.74948472  0.84379094     0.07600
C1752       C  0.14078204  0.77678293  0.84392953    -0.14600
H1753       H  0.09746576  0.79817925  0.84403776     0.11600
H1754       H  0.09763062  0.70067694  0.84348531     0.11600
H1755       H  0.15269323  0.70073097  0.84349529     0.11600
H1756       H  0.15246872  0.79823318  0.84404707     0.11600
C1757       C  0.39078708  0.52701361  0.84235431    -0.14600
C1758       C  0.40695953  0.99985605  0.84364415     0.07600
C1759       C  0.39084965  0.97259368  0.84479336    -0.14600
C1760       C  0.35930311  0.97256459  0.84475408    -0.14600
C1761       C  0.34314425  0.99980247  0.84358817     0.07600
C1762       C  0.35923392  0.52697565  0.84233236    -0.14600
H1763       H  0.40250325  0.54839273  0.84137673     0.11600
H1764       H  0.40261104  0.95121089  0.84576155     0.11600
H1765       H  0.34758489  0.95118473  0.84570693     0.11600
H1766       H  0.34745357  0.54834446  0.84133492     0.11600
C1767       C  0.10922089  0.52670956  0.84513927    -0.14600
C1768       C  0.09314418  0.99956472  0.84356905     0.07600
C1769       C  0.10933347  0.97239985  0.84194651    -0.14600
C1770       C  0.14088759  0.97246523  0.84194889    -0.14600
C1771       C  0.15695409  0.99969405  0.84356139     0.07600
C1772       C  0.14076716  0.52677376  0.84511651    -0.14600
H1773       H  0.09743460  0.54804103  0.84639825     0.11600
H1774       H  0.09763544  0.95105417  0.84065932     0.11600
H1775       H  0.15269209  0.95114708  0.84065606     0.11600
H1776       H  0.15246338  0.54812444  0.84636988     0.11600
C1777       C  0.26926502  0.73047712  0.75641806    -0.14600
C1778       C  0.24990091  0.74985175  0.74651195     0.07600
C1779       C  0.23052284  0.76912043  0.75649984    -0.14600
C1780       C  0.23093443  0.76943365  0.77614676    -0.14600
C1781       C  0.24992516  0.74968683  0.78605519     0.07600
C1782       C  0.26887787  0.72999886  0.77606392    -0.14600
H1783       H  0.28429284  0.71535767  0.74893997     0.11600
H1784       H  0.21548816  0.78430182  0.74908759     0.11600
H1785       H  0.21607359  0.78470448  0.78361773     0.11600
H1786       H  0.28375971  0.71468006  0.78346864     0.11600
C1787       C  0.22290704  0.85919359  0.68821312    -0.14600
C1788       C  0.25022581  0.84305935  0.68874392     0.07600
C1789       C  0.27751675  0.85918647  0.68929712    -0.14600
C1790       C  0.27748493  0.89074700  0.68933074    -0.14600
C1791       C  0.25015722  0.90686871  0.68880488     0.07600
C1792       C  0.22287518  0.89072750  0.68824665    -0.14600
H1793       H  0.20148796  0.84746770  0.68777196     0.11600
H1794       H  0.29895009  0.84743108  0.68971858     0.11600
H1795       H  0.29888439  0.90250189  0.68977379     0.11600
H1796       H  0.20142281  0.90245294  0.68782727     0.11600
C1797       C  0.22240198  0.60921480  0.68933215    -0.14600
C1798       C  0.24972314  0.59307495  0.68892806     0.07600
C1799       C  0.27702414  0.60919758  0.68849011    -0.14600
C1800       C  0.27701477  0.64073267  0.68843850    -0.14600
C1801       C  0.24969953  0.65688534  0.68882500     0.07600
C1802       C  0.22239278  0.64077478  0.68927944    -0.14600
H1803       H  0.20098973  0.59747503  0.68967935     0.11600
H1804       H  0.29847325  0.59745729  0.68817358     0.11600
H1805       H  0.29844604  0.65244438  0.68808913     0.11600
H1806       H  0.20096141  0.65254343  0.68959417     0.11600
C1807       C  0.23067559  0.98032559  0.75649919    -0.14600
C1808       C  0.24980321  0.99984763  0.74655239     0.07600
C1809       C  0.26931900  0.51934159  0.75649774    -0.14600
C1810       C  0.26889994  0.51968203  0.77613190    -0.14600
C1811       C  0.24995738  0.99979225  0.78604191     0.07600
C1812       C  0.23115478  0.97991102  0.77613222    -0.14600
H1813       H  0.21579666  0.96505017  0.74906674     0.11600
H1814       H  0.28418260  0.53464141  0.74906388     0.11600
H1815       H  0.28360274  0.53509472  0.78359257     0.11600
H1816       H  0.21647397  0.96446836  0.78359404     0.11600
C1817       C  0.47970496  0.73153343  0.75649571    -0.14600
C1818       C  0.49968228  0.75017850  0.74653009     0.07600
C1819       C  0.01990254  0.76829169  0.75647160    -0.14600
C1820       C  0.01966291  0.76855288  0.77611079    -0.14600
C1821       C  0.00010003  0.74945450  0.78604872     0.07600
C1822       C  0.48018620  0.73107141  0.77613569    -0.14600
H1823       H  0.46414215  0.71692736  0.74907024     0.11600
H1824       H  0.03539901  0.78295587  0.74902751     0.11600
H1825       H  0.03507794  0.78325983  0.78355096     0.11600
H1826       H  0.46485177  0.71630054  0.78359917     0.11600
C1827       C  0.02718595  0.89072094  0.68864230    -0.14600
C1828       C  0.49996322  0.90695920  0.68831923     0.07600
C1829       C  0.47260679  0.89090234  0.68799693    -0.14600
C1830       C  0.47252020  0.85935505  0.68806910    -0.14600
C1831       C  0.49979333  0.84315415  0.68844248     0.07600
C1832       C  0.02709903  0.85917427  0.68872152    -0.14600
H1833       H  0.04864012  0.90239674  0.68882614     0.11600
H1834       H  0.45119062  0.90270560  0.68775299     0.11600
H1835       H  0.45106832  0.84767343  0.68786261     0.11600
H1836       H  0.04851577  0.84737381  0.68896133     0.11600
C1837       C  0.47262392  0.60928036  0.68837320    -0.14600
C1838       C  0.49994339  0.59314041  0.68859118     0.07600
C1839       C  0.02720132  0.60924454  0.68861286    -0.14600
C1840       C  0.02719988  0.64079127  0.68862172    -0.14600
C1841       C  0.49992979  0.65696229  0.68862910     0.07600
C1842       C  0.47261928  0.64083068  0.68838403    -0.14600
H1843       H  0.45120010  0.59754696  0.68821266     0.11600
H1844       H  0.04864835  0.59749573  0.68875868     0.11600
H1845       H  0.04862470  0.65252298  0.68876706     0.11600
H1846       H  0.45116999  0.65257720  0.68823954     0.11600
C1847       C  0.48030719  0.98087879  0.75636018    -0.14600
C1848       C  0.99998728  0.99982931  0.74643602     0.07600
C1849       C  0.01972188  0.51875803  0.75637664    -0.14600
C1850       C  0.01934293  0.51911207  0.77602137    -0.14600
C1851       C  0.00000441  0.99975845  0.78596490     0.07600
C1852       C  0.48070832  0.98043953  0.77600473    -0.14600
H1853       H  0.46501305  0.96603428  0.74891289     0.11600
H1854       H  0.03500915  0.53363788  0.74894217     0.11600
H1855       H  0.03448218  0.53410379  0.78347046     0.11600
H1856       H  0.46557426  0.96541624  0.78344212     0.11600
O1857       O  0.97494209  0.49904050  0.71687334    -0.74200
O1858       O  0.97495577  0.00052287  0.66052053    -0.75100
O1859       O  0.97496381  0.45471863  0.68825581    -0.63800
O1860       O  0.97497356  0.04528826  0.68903206    -0.72200
O1861       O  0.52497929  0.04538829  0.68838693    -0.71700
O1862       O  0.52498204  0.45475134  0.68889824    -0.63000
O1863       O  0.52507326  0.99978707  0.66049711    -0.75500
O1864       O  0.52505109  0.50080267  0.71688431    -0.74300
Cu1865     Cu  0.97320179  0.49990756  0.68866414     1.04600
Cu1866     Cu  0.52677211  0.00017105  0.68866099     1.04300
C1867       C  0.99999000  0.49990022  0.72574641     0.92000
C1868       C  0.50001896  0.00018572  0.65163190     0.91200
C1869       C  0.49997167  0.44035895  0.68853200     0.83300
C1870       C  0.49992566  0.05969891  0.68863438     0.89600
O1871       O  0.97466885  0.24924897  0.71696747    -0.74200
O1872       O  0.97485072  0.25038731  0.66058054    -0.75100
O1873       O  0.97483808  0.20470971  0.68847404    -0.63800
O1874       O  0.97476288  0.29532429  0.68899380    -0.72200
O1875       O  0.52475376  0.29535568  0.68852882    -0.71700
O1876       O  0.52482652  0.20478767  0.68899990    -0.63000
O1877       O  0.52488675  0.24978865  0.66061195    -0.75500
O1878       O  0.52479332  0.25078861  0.71697148    -0.74300
Cu1879     Cu  0.97302969  0.24993757  0.68876234     1.04600
Cu1880     Cu  0.52655466  0.25015637  0.68878845     1.04300
C1881       C  0.99969524  0.25015757  0.72585932     0.92000
C1882       C  0.99994088  0.25007073  0.65173111     0.91200
C1883       C  0.99989140  0.19039895  0.68875513     0.83300
C1884       C  0.99976280  0.30973151  0.68864488     0.89600
O1885       O  0.72492921  0.00027480  0.66070740    -0.74200
O1886       O  0.72472206  0.49880108  0.71706429    -0.75100
O1887       O  0.72466509  0.04509255  0.68925741    -0.63800
O1888       O  0.72515001  0.45447681  0.68850526    -0.72200
O1889       O  0.77518222  0.45486099  0.68915752    -0.71700
O1890       O  0.77469707  0.04545763  0.68855598    -0.63000
O1891       O  0.77480905  0.50094579  0.71704296    -0.75500
O1892       O  0.77483772  0.49981249  0.66069053    -0.74300
Cu1893     Cu  0.72327937  0.99969996  0.68890460     1.04600
Cu1894     Cu  0.77654791  0.50025137  0.68887784     1.04300
C1895       C  0.74997418  0.00006617  0.65180595     0.92000
C1896       C  0.74977150  0.49985667  0.72591817     0.91200
C1897       C  0.74957492  0.05964539  0.68891031     0.83300
C1898       C  0.75028000  0.44029790  0.68881843     0.89600
O1899       O  0.77462947  0.20447137  0.68841567    -0.74200
O1900       O  0.77533976  0.29505440  0.68908879    -0.75100
O1901       O  0.77497037  0.24882811  0.71695872    -0.63800
O1902       O  0.77506174  0.25021926  0.66055577    -0.72200
O1903       O  0.72493794  0.24975701  0.66055151    -0.71700
O1904       O  0.72487877  0.25111280  0.71695266    -0.63000
O1905       O  0.72530793  0.29547071  0.68839615    -0.75500
O1906       O  0.72459632  0.20489564  0.68908924    -0.74300
Cu1907     Cu  0.77674911  0.24965061  0.68875501     1.04600
Cu1908     Cu  0.72318344  0.25029943  0.68874686     1.04300
C1909       C  0.74951603  0.19031275  0.68876178     0.92000
C1910       C  0.75041900  0.30963230  0.68873089     0.91200
C1911       C  0.74991362  0.24994862  0.72581716     0.83300
C1912       C  0.75000747  0.25002457  0.65167878     0.89600
O1913       O  0.49900192  0.47467515  0.81548619    -0.74200
O1914       O  0.50051536  0.47455840  0.87187840    -0.75100
O1915       O  0.95466148  0.47473951  0.84407375    -0.63800
O1916       O  0.54528440  0.47458681  0.84325375    -0.72200
O1917       O  0.54543204  0.02455789  0.84407997    -0.71700
O1918       O  0.95482143  0.02474052  0.84333430    -0.63000
O1919       O  0.49964786  0.02466080  0.87190102    -0.75500
O1920       O  0.50108788  0.02475410  0.81552054    -0.74300
Cu1921     Cu  0.49989512  0.47288581  0.84367765     1.04600
Cu1922     Cu  0.50023257  0.02643434  0.84371704     1.04300
C1923       C  0.50002464  0.49972929  0.80662811     0.92000
C1924       C  0.50007126  0.49961383  0.88075789     0.91200
C1925       C  0.94037551  0.49979978  0.84367972     0.83300
C1926       C  0.55971206  0.49957144  0.84363463     0.89600
O1927       O  0.49915871  0.22437962  0.81557242    -0.74200
O1928       O  0.50027501  0.22449383  0.87196278    -0.75100
O1929       O  0.95465993  0.22514007  0.84407399    -0.63800
O1930       O  0.54524996  0.22428318  0.84349305    -0.72200
O1931       O  0.54546129  0.27431525  0.84409535    -0.71700
O1932       O  0.95486031  0.27517385  0.84348544    -0.63000
O1933       O  0.49965181  0.27461417  0.87191426    -0.75500
O1934       O  0.50113615  0.27446788  0.81555906    -0.74300
Cu1935     Cu  0.49984882  0.22270214  0.84376509     1.04600
Cu1936     Cu  0.50026783  0.27626402  0.84373296     1.04300
C1937       C  0.50014958  0.24941729  0.80669710     0.92000
C1938       C  0.49994916  0.24958048  0.88081117     0.91200
C1939       C  0.94039114  0.25021182  0.84377519     0.83300
C1940       C  0.55972774  0.24923996  0.84379839     0.89600
O1941       O  0.79529959  0.47479521  0.84348629    -0.74200
O1942       O  0.70471155  0.47471016  0.84388295    -0.75100
O1943       O  0.74931472  0.47473227  0.81554845    -0.63800
O1944       O  0.75025506  0.47470412  0.87190705    -0.72200
O1945       O  0.74981182  0.02472703  0.87190850    -0.71700
O1946       O  0.75080235  0.02476249  0.81556743    -0.63000
O1947       O  0.70478632  0.02464498  0.84351577    -0.75500
O1948       O  0.79538922  0.02472765  0.84389265    -0.74300
Cu1949     Cu  0.74992536  0.47298956  0.84371189     1.04600
Cu1950     Cu  0.75016847  0.02646015  0.84372715     1.04300
C1951       C  0.80970517  0.49979797  0.84364966     0.92000
C1952       C  0.69037071  0.49974197  0.84365786     0.91200
C1953       C  0.75001771  0.49979040  0.80668929     0.83300
C1954       C  0.75001992  0.49976435  0.88078396     0.89600
O1955       O  0.74919451  0.27474197  0.81561892    -0.74200
O1956       O  0.75020071  0.27488449  0.87202344    -0.75100
O1957       O  0.79518448  0.27500321  0.84357568    -0.63800
O1958       O  0.70459131  0.27451326  0.84406735    -0.72200
O1959       O  0.70495573  0.22447857  0.84363336    -0.71700
O1960       O  0.79553568  0.22496893  0.84403885    -0.63000
O1961       O  0.74997685  0.22476602  0.87206108    -0.75500
O1962       O  0.75088056  0.22467134  0.81562332    -0.74300
Cu1963     Cu  0.74980349  0.27652683  0.84382085     1.04600
Cu1964     Cu  0.75032973  0.22297586  0.84384290     1.04300
C1965       C  0.75000744  0.24970365  0.80671981     0.92000
C1966       C  0.75009980  0.24984768  0.88092138     0.91200
C1967       C  0.80973059  0.25006320  0.84379664     0.83300
C1968       C  0.69040240  0.24941265  0.84384296     0.89600
O1969       O  0.97498504  0.00083105  0.31565337    -0.74200
O1970       O  0.97493699  0.99961569  0.37205001    -0.75100
O1971       O  0.97502567  0.04532318  0.34419409    -0.63800
O1972       O  0.97497668  0.45473602  0.34362070    -0.72200
O1973       O  0.52501828  0.45456068  0.34411439    -0.71700
O1974       O  0.52506352  0.04514959  0.34369045    -0.63000
O1975       O  0.52505619  0.00013000  0.37204708    -0.75500
O1976       O  0.52507391  0.99919864  0.31564499    -0.74300
Cu1977     Cu  0.97323844  0.00010484  0.34386909     1.04600
Cu1978     Cu  0.52679548  0.99978068  0.34386728     1.04300
C1979       C  0.50003516  0.00005055  0.30675247     0.92000
C1980       C  0.49998840  0.99983976  0.38091795     0.91200
C1981       C  0.50006773  0.05960161  0.34401223     0.83300
C1982       C  0.49997797  0.44026898  0.34390937     0.89600
O1983       O  0.97496024  0.24957078  0.37185267    -0.74200
O1984       O  0.97495483  0.25091315  0.31550046    -0.75100
O1985       O  0.97499261  0.20473136  0.34337017    -0.63800
O1986       O  0.97500040  0.29532159  0.34403403    -0.72200
O1987       O  0.52504629  0.29511798  0.34336940    -0.71700
O1988       O  0.52502961  0.20453042  0.34398703    -0.63000
O1989       O  0.52506752  0.24894243  0.31546514    -0.75500
O1990       O  0.52507668  0.25022048  0.37182621    -0.74300
Cu1991     Cu  0.97322952  0.25011114  0.34367955     1.04600
Cu1992     Cu  0.52680270  0.24972837  0.34365062     1.04300
C1993       C  0.50001644  0.24989087  0.38070572     0.92000
C1994       C  0.50001055  0.24984888  0.30661103     0.91200
C1995       C  0.49998782  0.19024720  0.34376671     0.83300
C1996       C  0.50005251  0.30957819  0.34373330     0.89600
O1997       O  0.77509133  0.04513067  0.34338165    -0.74200
O1998       O  0.77486609  0.45452443  0.34381687    -0.75100
O1999       O  0.77510195  0.99915922  0.31545397    -0.63800
O2000       O  0.77510333  0.00008676  0.37179123    -0.72200
O2001       O  0.72497877  0.99948871  0.37180144    -0.71700
O2002       O  0.72499531  0.00100010  0.31547568    -0.63000
O2003       O  0.72482646  0.45469315  0.34330638    -0.75500
O2004       O  0.72505358  0.04531242  0.34398082    -0.74300
Cu2005     Cu  0.77683520  0.99974947  0.34360818     1.04600
Cu2006     Cu  0.72326281  0.00010715  0.34362434     1.04300
C2007       C  0.75009732  0.05959179  0.34367263     0.92000
C2008       C  0.74982648  0.44023888  0.34353932     0.91200
C2009       C  0.75004685  0.00014113  0.30660699     0.83300
C2010       C  0.75003896  0.99974478  0.38066747     0.89600
O2011       O  0.77503945  0.20454441  0.34395948    -0.74200
O2012       O  0.77501124  0.29513301  0.34339478    -0.75100
O2013       O  0.77513624  0.25020281  0.37188171    -0.63800
O2014       O  0.77499227  0.24902574  0.31548731    -0.72200
O2015       O  0.72489905  0.25088747  0.31554006    -0.71700
O2016       O  0.72501492  0.24952967  0.37192745    -0.63000
O2017       O  0.72497688  0.29527867  0.34406580    -0.75500
O2018       O  0.72500244  0.20470387  0.34339465    -0.74300
Cu2019     Cu  0.77679255  0.24975140  0.34368121     1.04600
Cu2020     Cu  0.72322818  0.25007686  0.34373683     1.04300
C2021       C  0.75000268  0.19025417  0.34366162     0.92000
C2022       C  0.75000696  0.30957628  0.34371477     0.91200
C2023       C  0.75008990  0.24984412  0.38077882     0.83300
C2024       C  0.74992851  0.24996752  0.30663735     0.89600
O2025       O  0.97498513  0.99985786  0.46673839    -0.74200
O2026       O  0.97492115  0.99978603  0.41038164    -0.75100
O2027       O  0.97499652  0.45452184  0.43854932    -0.63800
O2028       O  0.97494325  0.04512355  0.43852683    -0.72200
O2029       O  0.52499323  0.04511155  0.43846735    -0.71700
O2030       O  0.52504483  0.45452482  0.43859216    -0.63000
O2031       O  0.52504933  0.99975853  0.41036429    -0.75500
O2032       O  0.52504521  0.99994942  0.46670029    -0.74300
Cu2033     Cu  0.97321934  0.99981811  0.43855896     1.04600
Cu2034     Cu  0.52677497  0.99983181  0.43853334     1.04300
C2035       C  0.50003147  0.99996009  0.47565250     0.92000
C2036       C  0.49998359  0.99978674  0.40150570     0.91200
C2037       C  0.50003445  0.44015548  0.43855865     0.83300
C2038       C  0.49996750  0.05949272  0.43845428     0.89600
O2039       O  0.97497919  0.24980336  0.41018559    -0.74200
O2040       O  0.97508039  0.24989373  0.46658141    -0.75100
O2041       O  0.97507233  0.29513699  0.43833278    -0.63800
O2042       O  0.97501729  0.20455535  0.43837437    -0.72200
O2043       O  0.52506780  0.20449234  0.43829554    -0.71700
O2044       O  0.52511817  0.29509277  0.43836417    -0.63000
O2045       O  0.52515011  0.24976943  0.46654781    -0.75500
O2046       O  0.52509884  0.24984834  0.41015376    -0.74300
Cu2047     Cu  0.97329898  0.24984767  0.43837266     1.04600
Cu2048     Cu  0.52684862  0.24979380  0.43833993     1.04300
C2049       C  0.50002757  0.24984877  0.40129882     0.92000
C2050       C  0.50014391  0.24984509  0.47551709     0.91200
C2051       C  0.50009734  0.30948612  0.43834301     0.83300
C2052       C  0.50003885  0.19015329  0.43830897     0.89600
O2053       O  0.72496526  0.99969442  0.41014260    -0.74200
O2054       O  0.72500330  0.99996710  0.46655683    -0.75100
O2055       O  0.72507953  0.04511771  0.43822927    -0.63800
O2056       O  0.72510480  0.45453112  0.43842212    -0.72200
O2057       O  0.77514475  0.45443915  0.43831142    -0.71700
O2058       O  0.77512143  0.04502439  0.43828266    -0.63000
O2059       O  0.77503650  0.99982230  0.46655492    -0.75500
O2060       O  0.77509107  0.99968284  0.41013665    -0.74300
Cu2061     Cu  0.72325448  0.99982910  0.43833757     1.04600
Cu2062     Cu  0.77679292  0.99973313  0.43833495     1.04300
C2063       C  0.75003186  0.99969050  0.40126617     0.92000
C2064       C  0.75001417  0.99994150  0.47551078     0.91200
C2065       C  0.75011632  0.05944074  0.43821776     0.83300
C2066       C  0.75010928  0.44011120  0.43835871     0.89600
O2067       O  0.72504872  0.24980274  0.41026344    -0.74200
O2068       O  0.72507062  0.24972820  0.46663464    -0.75100
O2069       O  0.72503892  0.29506768  0.43848283    -0.63800
O2070       O  0.72512705  0.20447314  0.43839695    -0.72200
O2071       O  0.77516898  0.20446176  0.43843917    -0.71700
O2072       O  0.77508039  0.29505252  0.43843680    -0.63000
O2073       O  0.77511029  0.24978470  0.46662704    -0.75500
O2074       O  0.77517465  0.24976884  0.41024603    -0.74300
Cu2075     Cu  0.72333201  0.24976422  0.43844921     1.04600
Cu2076     Cu  0.77687399  0.24976263  0.43844082     1.04300
C2077       C  0.75010952  0.24980038  0.40138108     0.92000
C2078       C  0.75008694  0.24978734  0.47557385     0.91200
C2079       C  0.75005212  0.30943241  0.43845111     0.83300
C2080       C  0.75015701  0.19009656  0.43838268     0.89600
O2081       O  0.50012829  0.47517753  0.06578821    -0.74200
O2082       O  0.50000888  0.47520065  0.12215857    -0.75100
O2083       O  0.95475442  0.47526938  0.09398993    -0.63800
O2084       O  0.54536433  0.47521429  0.09397478    -0.72200
O2085       O  0.54532808  0.02524910  0.09393059    -0.71700
O2086       O  0.95473109  0.02527841  0.09395746    -0.63000
O2087       O  0.50003873  0.02534339  0.12216178    -0.75500
O2088       O  0.49999462  0.02523872  0.06576794    -0.74300
Cu2089     Cu  0.50006806  0.47346501  0.09397037     1.04600
Cu2090     Cu  0.50002876  0.02702634  0.09395292     1.04300
C2091       C  0.50004916  0.00020193  0.05684359     0.92000
C2092       C  0.50000570  0.00028699  0.13104331     0.91200
C2093       C  0.94038084  0.00026059  0.09399849     0.83300
C2094       C  0.55971319  0.00022468  0.09395681     0.89600
O2095       O  0.50029469  0.22525891  0.06591358    -0.74200
O2096       O  0.50015776  0.22517407  0.12226946    -0.75100
O2097       O  0.95493869  0.22445345  0.09415866    -0.63800
O2098       O  0.54552266  0.22578628  0.09415418    -0.72200
O2099       O  0.54514001  0.27582288  0.09420552    -0.71700
O2100       O  0.95454881  0.27449005  0.09405240    -0.63000
O2101       O  0.49968809  0.27529747  0.12229542    -0.75500
O2102       O  0.50001233  0.27529312  0.06590182    -0.74300
Cu2103     Cu  0.50025562  0.22349755  0.09410186     1.04600
Cu2104     Cu  0.49981651  0.27703451  0.09410605     1.04300
C2105       C  0.50018885  0.25026725  0.05696139     0.92000
C2106       C  0.49989503  0.25022227  0.13115114     0.91200
C2107       C  0.94037221  0.24936658  0.09413462     0.83300
C2108       C  0.55970345  0.25090798  0.09422494     0.89600
O2109       O  0.75031621  0.47516639  0.06600476    -0.74200
O2110       O  0.74992571  0.47528528  0.12238685    -0.75100
O2111       O  0.70479730  0.47523902  0.09412031    -0.63800
O2112       O  0.79539025  0.47529273  0.09433555    -0.72200
O2113       O  0.79531068  0.02526853  0.09413596    -0.71700
O2114       O  0.70472285  0.02522105  0.09422711    -0.63000
O2115       O  0.75006240  0.02528567  0.12237104    -0.75500
O2116       O  0.74994001  0.02522592  0.06596810    -0.74300
Cu2117     Cu  0.75010729  0.47350890  0.09421301     1.04600
Cu2118     Cu  0.75000751  0.02699000  0.09417687     1.04300
C2119       C  0.75017345  0.00020026  0.05702657     0.92000
C2120       C  0.74995080  0.00022738  0.13124518     0.91200
C2121       C  0.69038343  0.00019775  0.09414660     0.83300
C2122       C  0.80971871  0.00025834  0.09425700     0.89600
O2123       O  0.75007942  0.22512829  0.12214811    -0.74200
O2124       O  0.74917800  0.22510254  0.06575454    -0.75100
O2125       O  0.79510092  0.22453319  0.09373689    -0.63800
O2126       O  0.70452052  0.22573859  0.09421578    -0.72200
O2127       O  0.70497252  0.27576807  0.09367787    -0.71700
O2128       O  0.79555858  0.27456452  0.09421922    -0.63000
O2129       O  0.75099116  0.27514804  0.06573773    -0.75500
O2130       O  0.74987431  0.27524891  0.12213726    -0.74300
Cu2131     Cu  0.74971159  0.22338370  0.09395605     1.04600
Cu2132     Cu  0.75036159  0.27692589  0.09393509     1.04300
C2133       C  0.74994460  0.25019463  0.13101929     0.92000
C2134       C  0.75009099  0.25011617  0.05683272     0.91200
C2135       C  0.80970109  0.24940981  0.09401951     0.83300
C2136       C  0.69037535  0.25088970  0.09399345     0.89600
O2137       O  0.95450283  0.02517017  0.18845279    -0.74200
O2138       O  0.54508045  0.02522805  0.18907788    -0.75100
O2139       O  0.50022950  0.02531608  0.16055100    -0.63800
O2140       O  0.49889970  0.02519140  0.21697761    -0.72200
O2141       O  0.50082254  0.47509283  0.21692605    -0.71700
O2142       O  0.49959799  0.47518319  0.16050207    -0.63000
O2143       O  0.54526199  0.47519090  0.18840170    -0.75500
O2144       O  0.95467171  0.47515220  0.18900377    -0.74300
Cu2145     Cu  0.49969787  0.02697869  0.18876738     1.04600
Cu2146     Cu  0.50006040  0.47340721  0.18870383     1.04300
C2147       C  0.94022570  0.00012733  0.18873013     0.92000
C2148       C  0.55954829  0.00023931  0.18876328     0.91200
C2149       C  0.49994882  0.00027273  0.15165381     0.83300
C2150       C  0.49987541  0.00012812  0.22582596     0.89600
O2151       O  0.95441767  0.27504427  0.18848171    -0.74200
O2152       O  0.54498931  0.27520331  0.18915900    -0.75100
O2153       O  0.50012840  0.27520037  0.16064335    -0.63800
O2154       O  0.49881292  0.27493779  0.21698479    -0.72200
O2155       O  0.50085191  0.22484875  0.21691843    -0.71700
O2156       O  0.49957051  0.22507751  0.16057603    -0.63000
O2157       O  0.54527821  0.22517472  0.18843998    -0.75500
O2158       O  0.95469904  0.22501364  0.18913954    -0.74300
Cu2159     Cu  0.49959854  0.27679588  0.18882350     1.04600
Cu2160     Cu  0.50007855  0.22323194  0.18874942     1.04300
C2161       C  0.94018720  0.24997619  0.18882747     0.92000
C2162       C  0.55950544  0.25024439  0.18883166     0.91200
C2163       C  0.49985542  0.25016904  0.15174131     0.83300
C2164       C  0.49984263  0.24986514  0.22581800     0.89600
O2165       O  0.75026971  0.02528983  0.16070830    -0.74200
O2166       O  0.74887801  0.02533152  0.21702755    -0.75100
O2167       O  0.79509517  0.02526636  0.18924048    -0.63800
O2168       O  0.70449153  0.02523550  0.18856433    -0.72200
O2169       O  0.70466289  0.47519410  0.18913204    -0.71700
O2170       O  0.79524482  0.47522922  0.18857511    -0.63000
O2171       O  0.75071554  0.47511100  0.21699883    -0.75500
O2172       O  0.74960806  0.47526409  0.16068288    -0.74300
Cu2173     Cu  0.74970440  0.02702967  0.18888259     1.04600
Cu2174     Cu  0.75003708  0.47345280  0.18884535     1.04300
C2175       C  0.74992038  0.00022956  0.15183757     0.92000
C2176       C  0.74984757  0.00028689  0.22588609     0.91200
C2177       C  0.80954832  0.00026803  0.18890788     0.83300
C2178       C  0.69021344  0.00019212  0.18889397     0.89600
O2179       O  0.70461669  0.22520713  0.18897853    -0.74200
O2180       O  0.79520685  0.22502649  0.18844731    -0.75100
O2181       O  0.75068309  0.22503248  0.21688999    -0.63800
O2182       O  0.74959474  0.22512692  0.16049478    -0.72200
O2183       O  0.75011803  0.27524449  0.16051685    -0.71700
O2184       O  0.74904223  0.27513248  0.21692527    -0.63000
O2185       O  0.79509037  0.27506268  0.18896065    -0.75500
O2186       O  0.70449272  0.27524373  0.18852053    -0.74300
Cu2187     Cu  0.74999511  0.22335407  0.18869551     1.04600
Cu2188     Cu  0.74971245  0.27691801  0.18872724     1.04300
C2189       C  0.69018300  0.25021909  0.18879274     0.92000
C2190       C  0.80951876  0.25004831  0.18872630     0.91200
C2191       C  0.74986290  0.25006763  0.22578149     0.83300
C2192       C  0.74987844  0.25019331  0.15162849     0.89600
O2193       O  0.50014043  0.47460147  0.91025335    -0.74200
O2194       O  0.50010923  0.47488263  0.96662588    -0.75100
O2195       O  0.95479480  0.47466497  0.93845507    -0.63800
O2196       O  0.54539212  0.47484775  0.93844827    -0.72200
O2197       O  0.54526063  0.02491531  0.93839305    -0.71700
O2198       O  0.95469642  0.02471590  0.93835481    -0.63000
O2199       O  0.49987728  0.02493618  0.96657020    -0.75500
O2200       O  0.49999982  0.02471582  0.91021111    -0.74300
Cu2201     Cu  0.50011229  0.47301152  0.93844717     1.04600
Cu2202     Cu  0.49994903  0.02655536  0.93838484     1.04300
C2203       C  0.50007670  0.49963893  0.90135607     0.92000
C2204       C  0.50001343  0.49993484  0.97553323     0.91200
C2205       C  0.94036379  0.49966413  0.93837937     0.83300
C2206       C  0.55970572  0.49988705  0.93839038     0.89600
O2207       O  0.50016012  0.22464229  0.91032589    -0.74200
O2208       O  0.50008978  0.22497253  0.96671184    -0.75100
O2209       O  0.95485272  0.22485232  0.93846075    -0.63800
O2210       O  0.54543401  0.22499657  0.93852226    -0.72200
O2211       O  0.54527718  0.27503363  0.93826896    -0.71700
O2212       O  0.95474030  0.27488890  0.93860488    -0.63000
O2213       O  0.50019957  0.27500636  0.96663038    -0.75500
O2214       O  0.49979185  0.27476381  0.91024045    -0.74300
Cu2215     Cu  0.50013782  0.22308319  0.93852079     1.04600
Cu2216     Cu  0.49998199  0.27662014  0.93842345     1.04300
C2217       C  0.49995617  0.24966142  0.90141050     0.92000
C2218       C  0.50017430  0.25002806  0.97561821     0.91200
C2219       C  0.94042213  0.24984920  0.93853161     0.83300
C2220       C  0.55972657  0.25005120  0.93835801     0.89600
O2221       O  0.70474137  0.47488458  0.93853847    -0.74200
O2222       O  0.79532275  0.47470791  0.93837582    -0.75100
O2223       O  0.75017921  0.47484399  0.96670149    -0.63800
O2224       O  0.74994587  0.47472297  0.91027264    -0.72200
O2225       O  0.75009619  0.02481103  0.91023520    -0.71700
O2226       O  0.74995137  0.02501323  0.96665436    -0.63000
O2227       O  0.79534145  0.02480753  0.93843734    -0.75500
O2228       O  0.70474024  0.02498513  0.93837131    -0.74300
Cu2229     Cu  0.75003959  0.47305024  0.93847833     1.04600
Cu2230     Cu  0.75003621  0.02664404  0.93842792     1.04300
C2231       C  0.69036536  0.49991458  0.93842893     0.92000
C2232       C  0.80969540  0.49971045  0.93836509     0.91200
C2233       C  0.75007176  0.49987991  0.97563542     0.83300
C2234       C  0.75001186  0.49977388  0.90138749     0.89600
O2235       O  0.74989256  0.27499333  0.91038791    -0.74200
O2236       O  0.75066970  0.27508995  0.96679775    -0.75100
O2237       O  0.79543004  0.27489711  0.93840277    -0.63800
O2238       O  0.70482424  0.27516611  0.93875773    -0.72200
O2239       O  0.70469939  0.22512835  0.93839719    -0.71700
O2240       O  0.79529374  0.22486345  0.93886928    -0.63000
O2241       O  0.74934254  0.22502674  0.96682847    -0.75500
O2242       O  0.75033306  0.22487510  0.91043682    -0.74300
Cu2243     Cu  0.75019223  0.27678164  0.93859087     1.04600
Cu2244     Cu  0.74992930  0.22323350  0.93863847     1.04300
C2245       C  0.75011350  0.24990809  0.90153419     0.92000
C2246       C  0.75000222  0.25007202  0.97572485     0.91200
C2247       C  0.80973501  0.24983809  0.93862613     0.83300
C2248       C  0.69039124  0.25018720  0.93853593     0.89600
O2249       O  0.52514141  0.45499959  0.59400661    -0.74200
O2250       O  0.52512232  0.04559062  0.59407797    -0.75100
O2251       O  0.52512483  0.00022031  0.62219231    -0.63800
O2252       O  0.52514317  0.00036120  0.56585366    -0.72200
O2253       O  0.97510971  0.00026307  0.56588665    -0.71700
O2254       O  0.97500930  0.00034447  0.62220951    -0.63000
O2255       O  0.97508631  0.04560266  0.59403132    -0.75500
O2256       O  0.97509555  0.45501457  0.59404911    -0.74300
Cu2257     Cu  0.52687219  0.00029225  0.59402691     1.04600
Cu2258     Cu  0.97333426  0.50031191  0.59402553     1.04300
C2259       C  0.50012268  0.44064595  0.59404327     0.92000
C2260       C  0.50009959  0.05998034  0.59407247     0.91200
C2261       C  0.50004679  0.00026078  0.63105218     0.83300
C2262       C  0.50012142  0.00032751  0.55692209     0.89600
O2263       O  0.97495646  0.25024915  0.62224661    -0.74200
O2264       O  0.97508443  0.25033447  0.56585276    -0.75100
O2265       O  0.97504578  0.20500690  0.59403812    -0.63800
O2266       O  0.97506390  0.29560448  0.59410337    -0.72200
O2267       O  0.52509931  0.29557564  0.59408943    -0.71700
O2268       O  0.52508132  0.20499515  0.59410451    -0.63000
O2269       O  0.52516609  0.25026362  0.56586261    -0.75500
O2270       O  0.52500713  0.25026993  0.62227958    -0.74300
Cu2271     Cu  0.97329963  0.25030477  0.59405714     1.04600
Cu2272     Cu  0.52682885  0.25027943  0.59408338     1.04300
C2273       C  0.49991274  0.25028263  0.63112873     0.92000
C2274       C  0.50016502  0.25025132  0.55689851     0.91200
C2275       C  0.50006270  0.19064471  0.59410992     0.83300
C2276       C  0.50008507  0.30997811  0.59407859     0.89600
O2277       O  0.72482257  0.50020611  0.62228891    -0.74200
O2278       O  0.72517690  0.50020861  0.56585478    -0.75100
O2279       O  0.72523246  0.45492419  0.59408300    -0.63800
O2280       O  0.72466749  0.04549818  0.59410561    -0.72200
O2281       O  0.77470741  0.04559980  0.59415526    -0.71700
O2282       O  0.77527316  0.45502232  0.59410907    -0.63000
O2283       O  0.77494488  0.00038109  0.56587888    -0.75500
O2284       O  0.77499964  0.00022570  0.62230458    -0.74300
Cu2285     Cu  0.72326873  0.50020430  0.59407189     1.04600
Cu2286     Cu  0.77669572  0.00031895  0.59410043     1.04300
C2287       C  0.74984803  0.50018600  0.63119910     0.92000
C2288       C  0.74993416  0.00027499  0.55692551     0.91200
C2289       C  0.75029491  0.44060185  0.59410460     0.83300
C2290       C  0.74964506  0.05992217  0.59413424     0.89600
O2291       O  0.72502831  0.25037977  0.56582578    -0.74200
O2292       O  0.72496292  0.25030695  0.62220216    -0.75100
O2293       O  0.72523903  0.29565157  0.59402741    -0.63800
O2294       O  0.72476930  0.20506836  0.59398058    -0.72200
O2295       O  0.77481094  0.20486026  0.59395504    -0.71700
O2296       O  0.77527976  0.29546425  0.59406719    -0.63000
O2297       O  0.77508789  0.25005257  0.62219953    -0.75500
O2298       O  0.77506831  0.25023938  0.56582374    -0.74300
Cu2299     Cu  0.72326132  0.25037040  0.59400813     1.04600
Cu2300     Cu  0.77680274  0.25014551  0.59400879     1.04300
C2301       C  0.75005407  0.25029899  0.55688223     0.92000
C2302       C  0.75002059  0.25013007  0.63107513     0.91200
C2303       C  0.75030168  0.30993082  0.59406063     0.83300
C2304       C  0.74973927  0.19059306  0.59396903     0.89600
C2305       C  0.77768685  0.39102636  0.59417536    -0.14600
C2306       C  0.75035827  0.40717428  0.59412183     0.07600
C2307       C  0.72304945  0.39105865  0.59407535    -0.14600
C2308       C  0.72304991  0.35952050  0.59405937    -0.14600
C2309       C  0.75036383  0.34336119  0.59409390     0.07600
C2310       C  0.77768744  0.35946771  0.59415987    -0.14600
H2311       H  0.79911353  0.40275838  0.59422149     0.11600
H2312       H  0.70160125  0.40280798  0.59404060     0.11600
H2313       H  0.70161292  0.34781023  0.59401337     0.11600
H2314       H  0.79912453  0.34769820  0.59419498     0.11600
C2315       C  0.77690637  0.10944997  0.59454176    -0.14600
C2316       C  0.74959396  0.09335266  0.59412107     0.07600
C2317       C  0.72228801  0.10952109  0.59365099    -0.14600
C2318       C  0.72231728  0.14108097  0.59359032    -0.14600
C2319       C  0.74964754  0.15716558  0.59400074     0.07600
C2320       C  0.77693557  0.14098689  0.59447949    -0.14600
H2321       H  0.79833713  0.09768595  0.59492460     0.11600
H2322       H  0.70086077  0.09780432  0.59330783     0.11600
H2323       H  0.70089735  0.15286936  0.59320924     0.11600
H2324       H  0.79837404  0.15268081  0.59482424     0.11600
C2325       C  0.52742581  0.35950794  0.59410662    -0.14600
C2326       C  0.50010180  0.34340704  0.59410834     0.07600
C2327       C  0.97278648  0.35954201  0.59420833    -0.14600
C2328       C  0.97279639  0.39108998  0.59417311    -0.14600
C2329       C  0.50012154  0.40721863  0.59408044     0.07600
C2330       C  0.52743809  0.39105720  0.59409147    -0.14600
H2331       H  0.54886437  0.34773971  0.59410370     0.11600
H2332       H  0.95135104  0.34782814  0.59422823     0.11600
H2333       H  0.95135669  0.40285481  0.59417119     0.11600
H2334       H  0.54887307  0.40277202  0.59408019     0.11600
C2335       C  0.97277443  0.10952820  0.59384408    -0.14600
C2336       C  0.50009392  0.09340826  0.59413214     0.07600
C2337       C  0.52740284  0.10952479  0.59443506    -0.14600
C2338       C  0.52739403  0.14107293  0.59445064    -0.14600
C2339       C  0.50007158  0.15721841  0.59416136     0.07600
C2340       C  0.97276582  0.14107490  0.59384167    -0.14600
H2341       H  0.95134871  0.09780123  0.59362229     0.11600
H2342       H  0.54884550  0.09776988  0.59465392     0.11600
H2343       H  0.54881942  0.15279988  0.59467921     0.11600
H2344       H  0.95132296  0.15282974  0.59361832     0.11600
C2345       C  0.89082548  0.27711369  0.93894960    -0.14600
C2346       C  0.90698822  0.24981185  0.93852258     0.07600
C2347       C  0.89088086  0.22249810  0.93808784    -0.14600
C2348       C  0.85932230  0.22248644  0.93812417    -0.14600
C2349       C  0.84316741  0.24979308  0.93858320     0.07600
C2350       C  0.85928079  0.27710234  0.93897635    -0.14600
H2351       H  0.90253760  0.29854365  0.93928555     0.11600
H2352       H  0.90265263  0.20106965  0.93772008     0.11600
H2353       H  0.84759369  0.20106615  0.93777661     0.11600
H2354       H  0.84752379  0.29853926  0.93933468     0.11600
C2355       C  0.60933627  0.22289008  0.93940652    -0.14600
C2356       C  0.59315367  0.25012510  0.93829505     0.07600
C2357       C  0.60923320  0.27740679  0.93717428    -0.14600
C2358       C  0.64079276  0.27745375  0.93724270    -0.14600
C2359       C  0.65696466  0.25021412  0.93842007     0.07600
C2360       C  0.64087637  0.22293633  0.93946518    -0.14600
H2361       H  0.59764253  0.20149091  0.94029473     0.11600
H2362       H  0.59743900  0.29877783  0.93624410     0.11600
H2363       H  0.65250910  0.29884066  0.93635197     0.11600
H2364       H  0.65265119  0.20155467  0.94039461     0.11600
C2365       C  0.89081833  0.47233317  0.93817318    -0.14600
C2366       C  0.90693530  0.49964392  0.93829012     0.07600
C2367       C  0.89081049  0.02700747  0.93832800    -0.14600
C2368       C  0.85926557  0.02703214  0.93832523    -0.14600
C2369       C  0.84312277  0.49967674  0.93826444     0.07600
C2370       C  0.85926466  0.47234727  0.93815712    -0.14600
H2371       H  0.90257647  0.45089032  0.93811543     0.11600
H2372       H  0.90254324  0.04843191  0.93838923     0.11600
H2373       H  0.84752270  0.04848325  0.93838539     0.11600
H2374       H  0.84753039  0.45092299  0.93809189     0.11600
C2375       C  0.64083465  0.47263103  0.93895844    -0.14600
C2376       C  0.65693950  0.49992848  0.93834390     0.07600
C2377       C  0.64077944  0.02728387  0.93766294    -0.14600
C2378       C  0.60922418  0.02726961  0.93766777    -0.14600
C2379       C  0.59313093  0.49991829  0.93833266     0.07600
C2380       C  0.60929072  0.47262370  0.93895473    -0.14600
H2381       H  0.65259698  0.45120709  0.93948606     0.11600
H2382       H  0.65249794  0.04870055  0.93713408     0.11600
H2383       H  0.59744712  0.04868580  0.93713970     0.11600
H2384       H  0.59757648  0.45120479  0.93947930     0.11600
C2385       C  0.89063422  0.22265266  0.18944280    -0.14600
C2386       C  0.90675819  0.24993556  0.18885736     0.07600
C2387       C  0.89061749  0.27725529  0.18828196    -0.14600
C2388       C  0.85907430  0.27729356  0.18825774    -0.14600
C2389       C  0.84294566  0.25001719  0.18879249     0.07600
C2390       C  0.85907855  0.22269036  0.18940148    -0.14600
H2391       H  0.90238717  0.20122042  0.18992246     0.11600
H2392       H  0.90234716  0.29866897  0.18782679     0.11600
H2393       H  0.84733239  0.29873129  0.18777842     0.11600
H2394       H  0.84733361  0.20128424  0.18986271     0.11600
C2395       C  0.60904940  0.27759135  0.18939362    -0.14600
C2396       C  0.59293593  0.25029592  0.18890940     0.07600
C2397       C  0.60908924  0.22297649  0.18849190    -0.14600
C2398       C  0.64063333  0.22295066  0.18849372    -0.14600
C2399       C  0.65675276  0.25023958  0.18889443     0.07600
C2400       C  0.64060645  0.27756580  0.18937826    -0.14600
H2401       H  0.59728750  0.29902442  0.18975927     0.11600
H2402       H  0.59736869  0.20155287  0.18813601     0.11600
H2403       H  0.65238351  0.20151105  0.18812920     0.11600
H2404       H  0.65234188  0.29898239  0.18974114     0.11600
C2405       C  0.89064217  0.47289521  0.18793806    -0.14600
C2406       C  0.90679662  0.00013346  0.18878185     0.07600
C2407       C  0.89067461  0.02743847  0.18974815    -0.14600
C2408       C  0.85912443  0.02749179  0.18981968    -0.14600
C2409       C  0.84297999  0.00024792  0.18890301     0.07600
C2410       C  0.85909124  0.47294298  0.18800571    -0.14600
H2411       H  0.90238411  0.45148014  0.18714427     0.11600
H2412       H  0.90242616  0.04882003  0.19048926     0.11600
H2413       H  0.84738982  0.04891274  0.19059814     0.11600
H2414       H  0.84734507  0.45155855  0.18726300     0.11600
C2415       C  0.60910689  0.47290664  0.18859068    -0.14600
C2416       C  0.59297514  0.00024553  0.18881526     0.07600
C2417       C  0.60909341  0.02754204  0.18906065    -0.14600
C2418       C  0.64064183  0.02751222  0.18909678    -0.14600
C2419       C  0.65678612  0.00018019  0.18890422     0.07600
C2420       C  0.64065591  0.47287626  0.18863432    -0.14600
H2421       H  0.59737652  0.45148252  0.18841048     0.11600
H2422       H  0.59734035  0.04898683  0.18921344     0.11600
H2423       H  0.65237258  0.04893615  0.18928180     0.11600
H2424       H  0.65240950  0.45143106  0.18847421     0.11600
C2425       C  0.73743117  0.22586862  0.02610903    -0.14600
C2426       C  0.75008578  0.25009804  0.03609090     0.07600
C2427       C  0.76270845  0.27432238  0.02608401    -0.14600
C2428       C  0.76266955  0.27432072  0.00644301    -0.14600
C2429       C  0.75001305  0.25009288  0.99646354     0.07600
C2430       C  0.73739983  0.22586376  0.00646849    -0.14600
H2431       H  0.72729426  0.20705787  0.03349765     0.11600
H2432       H  0.77286640  0.29313795  0.03345306     0.11600
H2433       H  0.77280495  0.29312910  0.99905115     0.11600
H2434       H  0.72724692  0.20704720  0.99909734     0.11600
C2435       C  0.75254369  0.47283012  0.02618764    -0.14600
C2436       C  0.75022516  0.00017255  0.03620702     0.07600
C2437       C  0.74784306  0.02736574  0.02614110    -0.14600
C2438       C  0.74782034  0.02732550  0.00649416    -0.14600
C2439       C  0.75017536  0.00009060  0.99646293     0.07600
C2440       C  0.75252351  0.47276160  0.00654052    -0.14600
H2441       H  0.75449640  0.45150916  0.03352398     0.11600
H2442       H  0.74590405  0.04872611  0.03343866     0.11600
H2443       H  0.74586696  0.04865504  0.99916916     0.11600
H2444       H  0.75446462  0.45139289  0.99925470     0.11600
C2445       C  0.89083825  0.22188269  0.09466599    -0.14600
C2446       C  0.90694370  0.24920624  0.09419931     0.07600
C2447       C  0.89078450  0.27649809  0.09377600    -0.14600
C2448       C  0.85926453  0.27649935  0.09374390    -0.14600
C2449       C  0.84312962  0.24921319  0.09412774     0.07600
C2450       C  0.85925901  0.22188384  0.09462462    -0.14600
H2451       H  0.90262303  0.20046188  0.09504636     0.11600
H2452       H  0.90248242  0.29793326  0.09342786     0.11600
H2453       H  0.84754106  0.29795196  0.09336977     0.11600
H2454       H  0.84749847  0.20048005  0.09498107     0.11600
C2455       C  0.60929939  0.22377595  0.09446323    -0.14600
C2456       C  0.59313291  0.25107121  0.09430287     0.07600
C2457       C  0.60923195  0.27840775  0.09415608    -0.14600
C2458       C  0.64080979  0.27841354  0.09406732    -0.14600
C2459       C  0.65694718  0.25107859  0.09413808     0.07600
C2460       C  0.64082038  0.22378191  0.09438336    -0.14600
H2461       H  0.59760669  0.20233206  0.09461595     0.11600
H2462       H  0.59744298  0.29983400  0.09406205     0.11600
H2463       H  0.65256183  0.29982767  0.09392195     0.11600
H2464       H  0.65254999  0.20232472  0.09448231     0.11600
C2465       C  0.49887816  0.22291668  0.02613884    -0.14600
C2466       C  0.50024879  0.25022624  0.03615247     0.07600
C2467       C  0.00163330  0.27722560  0.02612296    -0.14600
C2468       C  0.00165662  0.27723286  0.00648476    -0.14600
C2469       C  0.50023315  0.25010628  0.99642840     0.07600
C2470       C  0.49886683  0.22285708  0.00650189    -0.14600
H2471       H  0.49774488  0.20153145  0.03346986     0.11600
H2472       H  0.00274401  0.29862954  0.03343575     0.11600
H2473       H  0.00277964  0.29864147  0.99918008     0.11600
H2474       H  0.49772980  0.20142916  0.99921852     0.11600
C2475       C  0.89079708  0.02753369  0.09307080    -0.14600
C2476       C  0.90695460  0.00026571  0.09408483     0.07600
C2477       C  0.89084363  0.47305941  0.09520147    -0.14600
C2478       C  0.85929736  0.47306761  0.09528782    -0.14600
C2479       C  0.84314496  0.00027302  0.09426295     0.07600
C2480       C  0.85924709  0.02753531  0.09316085    -0.14600
H2481       H  0.90251782  0.04891679  0.09216676     0.11600
H2482       H  0.90260618  0.45166228  0.09605203     0.11600
H2483       H  0.84757504  0.45168669  0.09619134     0.11600
H2484       H  0.84747784  0.04892919  0.09231457     0.11600
C2485       C  0.60925600  0.02752397  0.09416819    -0.14600
C2486       C  0.59314149  0.00021374  0.09398720     0.07600
C2487       C  0.60930299  0.47292294  0.09388711    -0.14600
C2488       C  0.64085331  0.47292746  0.09396000    -0.14600
C2489       C  0.65695444  0.00019596  0.09411311     0.07600
C2490       C  0.64080406  0.02751723  0.09423474    -0.14600
H2491       H  0.59749924  0.04896693  0.09427004     0.11600
H2492       H  0.59758491  0.45149156  0.09374095     0.11600
H2493       H  0.65261904  0.45148927  0.09386191     0.11600
H2494       H  0.65252838  0.04894642  0.09437837     0.11600
C2495       C  0.49833884  0.02739134  0.02598388    -0.14600
C2496       C  0.50003438  0.00015137  0.03604676     0.07600
C2497       C  0.00173104  0.47286190  0.02603991    -0.14600
C2498       C  0.00171648  0.47280266  0.00640802    -0.14600
C2499       C  0.49998068  0.00002890  0.99634395     0.07600
C2500       C  0.49831087  0.02733082  0.00634931    -0.14600
H2501       H  0.49697835  0.04880476  0.03327314     0.11600
H2502       H  0.00310641  0.45149050  0.03337094     0.11600
H2503       H  0.00308260  0.45138818  0.99912184     0.11600
H2504       H  0.49693429  0.04869958  0.99901517     0.11600
C2505       C  0.77739565  0.25022005  0.50640672    -0.14600
C2506       C  0.75007944  0.24990461  0.49637447     0.07600
C2507       C  0.72275550  0.24976387  0.50641636    -0.14600
C2508       C  0.72274863  0.24992391  0.52605035    -0.14600
C2509       C  0.75006468  0.25022404  0.53608242     0.07600
C2510       C  0.77738890  0.25037732  0.52604107    -0.14600
H2511       H  0.79883508  0.25035401  0.49909410     0.11600
H2512       H  0.70132255  0.24952577  0.49911218     0.11600
H2513       H  0.70130922  0.24978817  0.53336270     0.11600
H2514       H  0.79882119  0.25061469  0.53334574     0.11600
C2515       C  0.72275342  0.39058108  0.43860762    -0.14600
C2516       C  0.75007758  0.40667877  0.43834620     0.07600
C2517       C  0.77738460  0.39050824  0.43808857    -0.14600
C2518       C  0.77736790  0.35896162  0.43812437    -0.14600
C2519       C  0.75004859  0.34286224  0.43841255     0.07600
C2520       C  0.72273682  0.35902889  0.43864242    -0.14600
H2521       H  0.70132009  0.40235417  0.43880412     0.11600
H2522       H  0.79882063  0.40221526  0.43786476     0.11600
H2523       H  0.79880436  0.34719337  0.43792292     0.11600
H2524       H  0.70130331  0.34731565  0.43886153     0.11600
C2525       C  0.77745370  0.10895948  0.43881980    -0.14600
C2526       C  0.75014804  0.09286454  0.43815802     0.07600
C2527       C  0.72285722  0.10902846  0.43749406    -0.14600
C2528       C  0.72286843  0.14057278  0.43755617    -0.14600
C2529       C  0.75016650  0.15667086  0.43827845     0.07600
C2530       C  0.77746498  0.14050886  0.43888180    -0.14600
H2531       H  0.79887279  0.09718660  0.43934118     0.11600
H2532       H  0.70143844  0.09731792  0.43693531     0.11600
H2533       H  0.70144678  0.15234039  0.43703542     0.11600
H2534       H  0.79888092  0.15222372  0.43944129     0.11600
C2535       C  0.77764857  0.50033357  0.50639981    -0.14600
C2536       C  0.74999670  0.00005693  0.49633908     0.07600
C2537       C  0.72267286  0.99994022  0.50639035    -0.14600
C2538       C  0.72265118  0.00003234  0.52603815    -0.14600
C2539       C  0.74995272  0.00024711  0.53609521     0.07600
C2540       C  0.77762364  0.50044560  0.52605190    -0.14600
H2541       H  0.79909129  0.50044410  0.49909162     0.11600
H2542       H  0.70124421  0.99976041  0.49908091     0.11600
H2543       H  0.70120599  0.99991811  0.53334344     0.11600
H2544       H  0.79904795  0.50062915  0.53336683     0.11600
C2545       C  0.52748698  0.25022084  0.50637313    -0.14600
C2546       C  0.50016638  0.24992400  0.49633683     0.07600
C2547       C  0.97279872  0.24981118  0.50639919    -0.14600
C2548       C  0.97280108  0.24994203  0.52604211    -0.14600
C2549       C  0.50018186  0.25016095  0.53607794     0.07600
C2550       C  0.52749494  0.25033848  0.52601875    -0.14600
H2551       H  0.54892028  0.25037805  0.49905402     0.11600
H2552       H  0.95136170  0.24956906  0.49909963     0.11600
H2553       H  0.95136337  0.24978634  0.53335637     0.11600
H2554       H  0.54893051  0.25057398  0.53331921     0.11600
C2555       C  0.97275975  0.39059988  0.43789221    -0.14600
C2556       C  0.50005625  0.40672582  0.43848572     0.07600
C2557       C  0.52737310  0.39058258  0.43896160    -0.14600
C2558       C  0.52738844  0.35903315  0.43888777    -0.14600
C2559       C  0.50009167  0.34291361  0.43834068     0.07600
C2560       C  0.97277593  0.35905348  0.43782156    -0.14600
H2561       H  0.95132277  0.40235019  0.43748264     0.11600
H2562       H  0.54878686  0.40231262  0.43941427     0.11600
H2563       H  0.54882433  0.34727944  0.43929376     0.11600
H2564       H  0.95136109  0.34732474  0.43736728     0.11600
C2565       C  0.97265496  0.10907900  0.43839454    -0.14600
C2566       C  0.49997324  0.09291766  0.43835273     0.07600
C2567       C  0.52730007  0.10901049  0.43821810    -0.14600
C2568       C  0.52732270  0.14055609  0.43817358    -0.14600
C2569       C  0.50001397  0.15672607  0.43826475     0.07600
C2570       C  0.97267700  0.14062838  0.43834900    -0.14600
H2571       H  0.95121714  0.09736973  0.43847959     0.11600
H2572       H  0.54873647  0.09723850  0.43816436     0.11600
H2573       H  0.54876206  0.15226203  0.43809036     0.11600
H2574       H  0.95124253  0.15240247  0.43840369     0.11600
C2575       C  0.97274759  0.99929479  0.50651379    -0.14600
C2576       C  0.50005528  0.00008458  0.49644253     0.07600
C2577       C  0.52736791  0.50097266  0.50646557    -0.14600
C2578       C  0.52739759  0.50108561  0.52609645    -0.14600
C2579       C  0.50010638  0.00029467  0.53613337     0.07600
C2580       C  0.97278036  0.99939359  0.52614377    -0.14600
H2581       H  0.95131050  0.99858733  0.49922509     0.11600
H2582       H  0.54878418  0.50160564  0.49913709     0.11600
H2583       H  0.54883172  0.50179444  0.53338722     0.11600
H2584       H  0.95136492  0.99875352  0.53347264     0.11600
C2585       C  0.76958111  0.23099688  0.27600445    -0.14600
C2586       C  0.74989245  0.24998292  0.28597008     0.07600
C2587       C  0.73017886  0.26898440  0.27604923    -0.14600
C2588       C  0.73056209  0.26940623  0.25640620    -0.14600
C2589       C  0.74986382  0.25003147  0.24644344     0.07600
C2590       C  0.76916923  0.23062266  0.25636233    -0.14600
H2591       H  0.78486256  0.21610559  0.28342516     0.11600
H2592       H  0.71490959  0.28385881  0.28350485     0.11600
H2593       H  0.71542065  0.28446409  0.24897432     0.11600
H2594       H  0.78430112  0.21558268  0.24889688     0.11600
C2595       C  0.72255934  0.39066660  0.34368087    -0.14600
C2596       C  0.74984308  0.40681235  0.34352017     0.07600
C2597       C  0.77719588  0.39069623  0.34339433    -0.14600
C2598       C  0.77726042  0.35914980  0.34345378    -0.14600
C2599       C  0.74997851  0.34300311  0.34365261     0.07600
C2600       C  0.72262400  0.35911847  0.34375786    -0.14600
H2601       H  0.70110075  0.40239734  0.34378093     0.11600
H2602       H  0.79861033  0.40244696  0.34325336     0.11600
H2603       H  0.79871989  0.34742122  0.34335719     0.11600
H2604       H  0.70121052  0.34736645  0.34389672     0.11600
C2605       C  0.77739491  0.10914706  0.34366541    -0.14600
C2606       C  0.75009867  0.09301877  0.34364351     0.07600
C2607       C  0.72275664  0.10915260  0.34358550    -0.14600
C2608       C  0.72271574  0.14069931  0.34357189    -0.14600
C2609       C  0.75001077  0.15682807  0.34363040     0.07600
C2610       C  0.77735393  0.14069532  0.34366914    -0.14600
H2611       H  0.79884589  0.09740282  0.34370233     0.11600
H2612       H  0.70133396  0.09741615  0.34354682     0.11600
H2613       H  0.70126350  0.15244233  0.34353466     0.11600
H2614       H  0.79877568  0.15243320  0.34370211     0.11600
C2615       C  0.76915287  0.48078127  0.27603792    -0.14600
C2616       C  0.75003728  0.00025028  0.28598087     0.07600
C2617       C  0.73055713  0.01953130  0.27610321    -0.14600
C2618       C  0.73088742  0.01994257  0.25647419    -0.14600
C2619       C  0.74990550  0.00029424  0.24651422     0.07600
C2620       C  0.76873718  0.48041910  0.25641285    -0.14600
H2621       H  0.78424285  0.46569553  0.28346289     0.11600
H2622       H  0.71549824  0.03459680  0.28358284     0.11600
H2623       H  0.71592181  0.03518822  0.24905533     0.11600
H2624       H  0.78368199  0.46519989  0.24894562     0.11600
C2625       C  0.51935397  0.23051983  0.27600602    -0.14600
C2626       C  0.49997948  0.24982765  0.28596260     0.07600
C2627       C  0.98055417  0.26938345  0.27607841    -0.14600
C2628       C  0.98091587  0.26983023  0.25644408    -0.14600
C2629       C  0.49986953  0.24981363  0.24646408     0.07600
C2630       C  0.51890440  0.23011902  0.25636946    -0.14600
H2631       H  0.53442698  0.21539302  0.28343654     0.11600
H2632       H  0.96550102  0.28448294  0.28355765     0.11600
H2633       H  0.96599889  0.28510175  0.24903328     0.11600
H2634       H  0.53378061  0.21485692  0.24890717     0.11600
C2635       C  0.97267002  0.39072779  0.34411552    -0.14600
C2636       C  0.49997809  0.40683473  0.34401184     0.07600
C2637       C  0.52731671  0.39069236  0.34402152    -0.14600
C2638       C  0.52735228  0.35914101  0.34395212    -0.14600
C2639       C  0.50005505  0.34301237  0.34389427     0.07600
C2640       C  0.97270408  0.35917876  0.34407562    -0.14600
H2641       H  0.95122041  0.40247615  0.34415036     0.11600
H2642       H  0.54874128  0.40242621  0.34402566     0.11600
H2643       H  0.54880167  0.34739410  0.34391907     0.11600
H2644       H  0.95127886  0.34744597  0.34407600     0.11600
C2645       C  0.52732881  0.14069353  0.34419210    -0.14600
C2646       C  0.49998841  0.15682595  0.34395930     0.07600
C2647       C  0.97269362  0.14072440  0.34383959    -0.14600
C2648       C  0.97273032  0.10917734  0.34394514    -0.14600
C2649       C  0.50006863  0.09302405  0.34412762     0.07600
C2650       C  0.52736616  0.10914771  0.34426968    -0.14600
H2651       H  0.54875204  0.15242919  0.34426737     0.11600
H2652       H  0.95124407  0.15246948  0.34370278     0.11600
H2653       H  0.95130629  0.09744190  0.34386682     0.11600
H2654       H  0.54881516  0.09740180  0.34440154     0.11600
C2655       C  0.97811743  0.01653945  0.27608039    -0.14600
C2656       C  0.50002611  0.00010453  0.28603638     0.07600
C2657       C  0.52185739  0.48365115  0.27601867    -0.14600
C2658       C  0.52146257  0.48323030  0.25636852    -0.14600
C2659       C  0.49991534  0.00010319  0.24647852     0.07600
C2660       C  0.97840447  0.01696150  0.25643001    -0.14600
H2661       H  0.96114176  0.02946171  0.28351338     0.11600
H2662       H  0.53886646  0.47072307  0.28340379     0.11600
H2663       H  0.53829736  0.47015774  0.24887639     0.11600
H2664       H  0.96153755  0.03004294  0.24898616     0.11600
C2665       C  0.89088399  0.22292897  0.84344199    -0.14600
C2666       C  0.90696646  0.25025656  0.84375899     0.07600
C2667       C  0.89078930  0.27755527  0.84406141    -0.14600
C2668       C  0.85922749  0.27751411  0.84406932    -0.14600
C2669       C  0.84315740  0.25017875  0.84377025     0.07600
C2670       C  0.85934897  0.22288787  0.84344798    -0.14600
H2671       H  0.90265711  0.20149545  0.84317579     0.11600
H2672       H  0.90250120  0.29898496  0.84431994     0.11600
H2673       H  0.84742513  0.29892759  0.84433344     0.11600
H2674       H  0.84766740  0.20143800  0.84318787     0.11600
C2675       C  0.60924031  0.27652247  0.84393274    -0.14600
C2676       C  0.59315849  0.24918998  0.84379953     0.07600
C2677       C  0.60934303  0.22189034  0.84365814    -0.14600
C2678       C  0.64090790  0.22193771  0.84366826    -0.14600
C2679       C  0.65697377  0.24928132  0.84381876     0.07600
C2680       C  0.64077493  0.27656993  0.84394005    -0.14600
H2681       H  0.59746669  0.29795812  0.84402899     0.11600
H2682       H  0.59763403  0.20045402  0.84354943     0.11600
H2683       H  0.65271522  0.20052318  0.84356601     0.11600
H2684       H  0.65245068  0.29802668  0.84404314     0.11600
C2685       C  0.89079194  0.02700033  0.84234481    -0.14600
C2686       C  0.90694574  0.49983950  0.84361608     0.07600
C2687       C  0.89083249  0.47257941  0.84476502    -0.14600
C2688       C  0.85928635  0.47255583  0.84473220    -0.14600
C2689       C  0.84313211  0.49979704  0.84357274     0.07600
C2690       C  0.85923928  0.02696061  0.84232489    -0.14600
H2691       H  0.90250697  0.04837909  0.84135888     0.11600
H2692       H  0.90259073  0.45119490  0.84573123     0.11600
H2693       H  0.84756495  0.45117794  0.84568698     0.11600
H2694       H  0.84745799  0.04832772  0.84132040     0.11600
C2695       C  0.60923930  0.02672673  0.84511491    -0.14600
C2696       C  0.59313938  0.49958189  0.84356740     0.07600
C2697       C  0.60932941  0.47241953  0.84193413    -0.14600
C2698       C  0.64088308  0.47248611  0.84193747    -0.14600
C2699       C  0.65694813  0.49971402  0.84356169     0.07600
C2700       C  0.64078535  0.02678520  0.84509703    -0.14600
H2701       H  0.59745611  0.04806008  0.84637314     0.11600
H2702       H  0.59763254  0.45107473  0.84063800     0.11600
H2703       H  0.65268767  0.45117075  0.84063640     0.11600
H2704       H  0.65248486  0.04813358  0.84635257     0.11600
C2705       C  0.76588481  0.22762928  0.75633339    -0.14600
C2706       C  0.74989206  0.24986222  0.74645376     0.07600
C2707       C  0.73388701  0.27200277  0.75641599    -0.14600
C2708       C  0.73433034  0.27224555  0.77606240    -0.14600
C2709       C  0.74992691  0.24971723  0.78600087     0.07600
C2710       C  0.76547505  0.22724099  0.77597976    -0.14600
H2711       H  0.77826417  0.21030453  0.74882871     0.11600
H2712       H  0.72149742  0.28938428  0.74897755     0.11600
H2713       H  0.72209454  0.28972473  0.78349818     0.11600
H2714       H  0.77773259  0.20971575  0.78334988     0.11600
C2715       C  0.72321710  0.35919554  0.68815874    -0.14600
C2716       C  0.75052954  0.34305873  0.68871406     0.07600
C2717       C  0.77782461  0.35918468  0.68927785    -0.14600
C2718       C  0.77778837  0.39075529  0.68931206    -0.14600
C2719       C  0.75045208  0.40686967  0.68877735     0.07600
C2720       C  0.72318086  0.39071999  0.68819392    -0.14600
H2721       H  0.70179527  0.34747797  0.68770304     0.11600
H2722       H  0.79925403  0.34742191  0.68971215     0.11600
H2723       H  0.79918116  0.40252260  0.68976876     0.11600
H2724       H  0.70172271  0.40243254  0.68776085     0.11600
C2725       C  0.72209707  0.10920486  0.68931273    -0.14600
C2726       C  0.74942712  0.09307275  0.68889430     0.07600
C2727       C  0.77671720  0.10920403  0.68842889    -0.14600
C2728       C  0.77670333  0.14072948  0.68837895    -0.14600
C2729       C  0.74939420  0.15688442  0.68879518     0.07600
C2730       C  0.72208317  0.14077507  0.68926254    -0.14600
H2731       H  0.70069170  0.09745254  0.68967593     0.11600
H2732       H  0.79817249  0.09747678  0.68809464     0.11600
H2733       H  0.79813715  0.15243290  0.68801298     0.11600
H2734       H  0.70065641  0.15255066  0.68959428     0.11600
C2735       C  0.73068100  0.48032061  0.75650649    -0.14600
C2736       C  0.74980493  0.49984464  0.74655825     0.07600
C2737       C  0.76932554  0.01934487  0.75650414    -0.14600
C2738       C  0.76891201  0.01967652  0.77613812    -0.14600
C2739       C  0.74995548  0.49979956  0.78604708     0.07600
C2740       C  0.73115830  0.47991193  0.77613911    -0.14600
H2741       H  0.71580531  0.46504125  0.74907597     0.11600
H2742       H  0.78418730  0.03464869  0.74907185     0.11600
H2743       H  0.78361557  0.03508721  0.78359978     0.11600
H2744       H  0.71647891  0.46446862  0.78360203     0.11600
C2745       C  0.97969696  0.23155755  0.75649275    -0.14600
C2746       C  0.99967585  0.25020048  0.74652723     0.07600
C2747       C  0.51990670  0.26827596  0.75646952    -0.14600
C2748       C  0.51966838  0.26853360  0.77610857    -0.14600
C2749       C  0.50010707  0.24943232  0.78604584     0.07600
C2750       C  0.98017430  0.23109960  0.77613258    -0.14600
H2751       H  0.96413601  0.21694903  0.74906727     0.11600
H2752       H  0.53540121  0.28294329  0.74902599     0.11600
H2753       H  0.53508253  0.28324076  0.78354894     0.11600
H2754       H  0.96483934  0.21632960  0.78359553     0.11600
C2755       C  0.52719118  0.39071681  0.68866218    -0.14600
C2756       C  0.99995930  0.40695801  0.68832295     0.07600
C2757       C  0.97260338  0.39090049  0.68799960    -0.14600
C2758       C  0.97251820  0.35935318  0.68806877    -0.14600
C2759       C  0.99979257  0.34315392  0.68844019     0.07600
C2760       C  0.52710058  0.35917050  0.68873997    -0.14600
H2761       H  0.54864654  0.40239018  0.68884651     0.11600
H2762       H  0.95118699  0.40270272  0.68775620     0.11600
H2763       H  0.95106800  0.34767118  0.68786105     0.11600
H2764       H  0.54851565  0.34736797  0.68897935     0.11600
C2765       C  0.97261884  0.10928671  0.68838950    -0.14600
C2766       C  0.99993629  0.09314381  0.68860613     0.07600
C2767       C  0.52720368  0.10924831  0.68860810    -0.14600
C2768       C  0.52720120  0.14079501  0.68861489    -0.14600
C2769       C  0.99993075  0.15696518  0.68864195     0.07600
C2770       C  0.97261813  0.14083690  0.68839927    -0.14600
H2771       H  0.95119361  0.09755586  0.68822947     0.11600
H2772       H  0.54865151  0.09749992  0.68875386     0.11600
H2773       H  0.54862559  0.15252753  0.68875900     0.11600
H2774       H  0.95117053  0.15258564  0.68825466     0.11600
C2775       C  0.98031237  0.48085598  0.75635900    -0.14600
C2776       C  0.50001767  0.49983255  0.74643621     0.07600
C2777       C  0.51972066  0.01877664  0.75637579    -0.14600
C2778       C  0.51933433  0.01914068  0.77602065    -0.14600
C2779       C  0.50002138  0.49976250  0.78596487     0.07600
C2780       C  0.98072072  0.48040699  0.77600338    -0.14600
H2781       H  0.96501758  0.46601313  0.74891074     0.11600
H2782       H  0.53501152  0.03365132  0.74894066     0.11600
H2783       H  0.53447353  0.03413346  0.78346900     0.11600
H2784       H  0.96558946  0.46537948  0.78344016     0.11600
O2785       O  0.97493327  0.99903747  0.71689349    -0.74200
O2786       O  0.97494698  0.50050241  0.66049446    -0.75100
O2787       O  0.97493564  0.95471296  0.68828103    -0.63800
O2788       O  0.97493855  0.54526836  0.68898905    -0.72200
O2789       O  0.52502103  0.54538257  0.68842679    -0.71700
O2790       O  0.52500418  0.95478354  0.68886227    -0.63000
O2791       O  0.52508427  0.49976658  0.66052543    -0.75500
O2792       O  0.52503811  0.00082999  0.71686042    -0.74300
Cu2793     Cu  0.97320413  0.99991687  0.68869031     1.04600
Cu2794     Cu  0.52678310  0.50014827  0.68869066     1.04300
C2795       C  0.99997941  0.99988333  0.72576720     0.92000
C2796       C  0.50003013  0.50017357  0.65165986     0.91200
C2797       C  0.50000072  0.94038315  0.68847944     0.83300
C2798       C  0.49997357  0.55970659  0.68868905     0.89600
O2799       O  0.97470047  0.74902784  0.71699235    -0.74200
O2800       O  0.97477031  0.75046523  0.66058838    -0.75100
O2801       O  0.97479247  0.70466591  0.68840058    -0.63800
O2802       O  0.97472002  0.79527286  0.68909893    -0.72200
O2803       O  0.52480006  0.79540010  0.68845810    -0.71700
O2804       O  0.52486659  0.70483355  0.68910940    -0.63000
O2805       O  0.52496531  0.74970636  0.66062485    -0.75500
O2806       O  0.52476124  0.75100615  0.71699690    -0.74300
Cu2807     Cu  0.97299306  0.74988226  0.68878036     1.04600
Cu2808     Cu  0.52659026  0.75020841  0.68880940     1.04300
C2809       C  0.99975306  0.74986280  0.72586147     0.92000
C2810       C  0.99985445  0.75016630  0.65172897     0.91200
C2811       C  0.99984476  0.69035496  0.68864118     0.83300
C2812       C  0.99971708  0.80968551  0.68875192     0.89600
O2813       O  0.72471456  0.50030401  0.66068050    -0.74200
O2814       O  0.72508119  0.99888798  0.71707311    -0.75100
O2815       O  0.72436367  0.54508597  0.68928074    -0.63800
O2816       O  0.72542528  0.95451558  0.68856819    -0.72200
O2817       O  0.77545910  0.95486812  0.68917571    -0.71700
O2818       O  0.77439658  0.54542764  0.68862086    -0.63000
O2819       O  0.77516853  0.00102301  0.71703083    -0.75500
O2820       O  0.77505221  0.99977992  0.66065792    -0.74300
Cu2821     Cu  0.72298464  0.49967314  0.68888392     1.04600
Cu2822     Cu  0.77684294  0.00027148  0.68885305     1.04300
C2823       C  0.74978971  0.50009847  0.65180904     0.92000
C2824       C  0.75013796  0.99993725  0.72591666     0.91200
C2825       C  0.74928378  0.55962897  0.68897118     0.83300
C2826       C  0.75054382  0.94032043  0.68887629     0.89600
O2827       O  0.77458291  0.70447124  0.68865038    -0.74200
O2828       O  0.77541824  0.79507548  0.68897680    -0.75100
O2829       O  0.77498768  0.74932002  0.71699236    -0.63800
O2830       O  0.77508475  0.74999321  0.66062081    -0.72200
O2831       O  0.72495778  0.74996755  0.66061847    -0.71700
O2832       O  0.72493319  0.75066428  0.71699704    -0.63000
O2833       O  0.72538027  0.79547847  0.68862390    -0.75500
O2834       O  0.72454497  0.70489577  0.68899548    -0.74300
Cu2835     Cu  0.77676107  0.74970640  0.68880888     1.04600
Cu2836     Cu  0.72321303  0.75025862  0.68880703     1.04300
C2837       C  0.74945747  0.69031049  0.68884163     0.92000
C2838       C  0.75049762  0.80964854  0.68879883     0.91200
C2839       C  0.74995591  0.74997493  0.72591562     0.83300
C2840       C  0.75002960  0.75000722  0.65174768     0.89600
O2841       O  0.49899382  0.97467716  0.81548355    -0.74200
O2842       O  0.50050785  0.97454439  0.87188664    -0.75100
O2843       O  0.95469066  0.97471290  0.84408044    -0.63800
O2844       O  0.54528026  0.97453297  0.84326250    -0.72200
O2845       O  0.54539834  0.52461234  0.84407102    -0.71700
O2846       O  0.95483335  0.52476644  0.84332785    -0.63000
O2847       O  0.49961376  0.52467466  0.87189184    -0.75500
O2848       O  0.50105665  0.52475531  0.81551889    -0.74300
Cu2849     Cu  0.49988638  0.97287883  0.84368204     1.04600
Cu2850     Cu  0.50019802  0.52644293  0.84370951     1.04300
C2851       C  0.50003431  0.99973203  0.80662528     0.92000
C2852       C  0.50008307  0.99959969  0.88076742     0.91200
C2853       C  0.94038515  0.99976114  0.84368507     0.83300
C2854       C  0.55972757  0.99950605  0.84364876     0.89600
O2855       O  0.49908385  0.72496019  0.81554965    -0.74200
O2856       O  0.50043696  0.72489980  0.87193417    -0.75100
O2857       O  0.95467807  0.72454118  0.84401539    -0.63800
O2858       O  0.54526868  0.72492547  0.84337378    -0.72200
O2859       O  0.54541612  0.77495660  0.84403088    -0.71700
O2860       O  0.95484000  0.77457231  0.84336656    -0.63000
O2861       O  0.49970712  0.77501820  0.87195217    -0.75500
O2862       O  0.50092811  0.77505411  0.81558333    -0.74300
Cu2863     Cu  0.49990382  0.72319250  0.84373429     1.04600
Cu2864     Cu  0.50019426  0.77675634  0.84376554     1.04300
C2865       C  0.49997267  0.75002308  0.80669825     0.92000
C2866       C  0.50006160  0.74995477  0.88081704     0.91200
C2867       C  0.94038757  0.74960176  0.84365343     0.83300
C2868       C  0.55971310  0.74989921  0.84366765     0.89600
O2869       O  0.79532147  0.97468692  0.84348707    -0.74200
O2870       O  0.70473410  0.97460291  0.84388141    -0.75100
O2871       O  0.74936065  0.97465380  0.81554033    -0.63800
O2872       O  0.75027455  0.97460568  0.87191494    -0.72200
O2873       O  0.74979639  0.52482578  0.87191339    -0.71700
O2874       O  0.75075529  0.52484107  0.81555981    -0.63000
O2875       O  0.70476507  0.52475265  0.84351745    -0.75500
O2876       O  0.79537124  0.52483550  0.84388861    -0.74300
Cu2877     Cu  0.74994995  0.97288868  0.84371104     1.04600
Cu2878     Cu  0.75014580  0.52656113  0.84372561     1.04300
C2879       C  0.80972384  0.99969063  0.84364860     0.92000
C2880       C  0.69039185  0.99963374  0.84366147     0.91200
C2881       C  0.75009809  0.99972063  0.80668891     0.83300
C2882       C  0.75003819  0.99967410  0.88078589     0.89600
O2883       O  0.74928815  0.77478216  0.81560518    -0.74200
O2884       O  0.75027716  0.77487696  0.87197273    -0.75100
O2885       O  0.79527194  0.77475512  0.84352596    -0.63800
O2886       O  0.70467931  0.77479497  0.84400391    -0.72200
O2887       O  0.70481965  0.72475518  0.84357273    -0.71700
O2888       O  0.79541036  0.72471618  0.84397930    -0.63000
O2889       O  0.74984674  0.72475586  0.87200017    -0.75500
O2890       O  0.75075409  0.72464101  0.81561493    -0.74300
Cu2891     Cu  0.74990124  0.77654953  0.84378112     1.04600
Cu2892     Cu  0.75018619  0.72296697  0.84379994     1.04300
C2893       C  0.75000102  0.74970544  0.80677756     0.92000
C2894       C  0.75007670  0.74983234  0.88086053     0.91200
C2895       C  0.80971190  0.74975008  0.84371464     0.83300
C2896       C  0.69037976  0.74975977  0.84374954     0.89600
O2897       O  0.97499976  0.50082841  0.31565889    -0.74200
O2898       O  0.97492749  0.49962939  0.37205083    -0.75100
O2899       O  0.97502982  0.54531789  0.34419579    -0.63800
O2900       O  0.97497994  0.95472326  0.34360702    -0.72200
O2901       O  0.52500704  0.95456614  0.34411946    -0.71700
O2902       O  0.52506333  0.54515933  0.34366983    -0.63000
O2903       O  0.52506492  0.50014100  0.37204321    -0.75500
O2904       O  0.52506711  0.49919147  0.31563430    -0.74300
Cu2905     Cu  0.97323959  0.50010929  0.34387306     1.04600
Cu2906     Cu  0.52679850  0.49978309  0.34385807     1.04300
C2907       C  0.50002578  0.50003832  0.30674377     0.92000
C2908       C  0.49999788  0.49984998  0.38091619     0.91200
C2909       C  0.50006731  0.55961292  0.34398114     0.83300
C2910       C  0.49996401  0.94028040  0.34391405     0.89600
O2911       O  0.97496681  0.74957655  0.37184638    -0.74200
O2912       O  0.97496432  0.75081083  0.31549504    -0.75100
O2913       O  0.97500086  0.70469996  0.34339612    -0.63800
O2914       O  0.97501500  0.79528982  0.34399509    -0.72200
O2915       O  0.52502472  0.79515274  0.34340236    -0.71700
O2916       O  0.52502316  0.70456432  0.34395375    -0.63000
O2917       O  0.52505344  0.74904890  0.31547245    -0.75500
O2918       O  0.52507362  0.75021666  0.37182654    -0.74300
Cu2919     Cu  0.97324004  0.75007427  0.34367331     1.04600
Cu2920     Cu  0.52679077  0.74976889  0.34365296     1.04300
C2921       C  0.50001481  0.74988528  0.38070655     0.92000
C2922       C  0.49999995  0.74998638  0.30661689     0.91200
C2923       C  0.49998293  0.69027740  0.34372008     0.83300
C2924       C  0.50002897  0.80960823  0.34376898     0.89600
O2925       O  0.77489952  0.54510333  0.34330735    -0.74200
O2926       O  0.77505018  0.95453776  0.34379976    -0.75100
O2927       O  0.77483136  0.49904967  0.31543246    -0.63800
O2928       O  0.77501330  0.50012878  0.37176091    -0.72200
O2929       O  0.72488892  0.49952400  0.37183732    -0.71700
O2930       O  0.72472461  0.50088667  0.31550169    -0.63000
O2931       O  0.72501304  0.95472239  0.34323138    -0.75500
O2932       O  0.72486397  0.54528806  0.34396721    -0.74300
Cu2933     Cu  0.77664900  0.49972485  0.34357918     1.04600
Cu2934     Cu  0.72307634  0.50007650  0.34365790     1.04300
C2935       C  0.74990715  0.55956669  0.34361605     0.92000
C2936       C  0.75000724  0.94025803  0.34348629     0.91200
C2937       C  0.74975434  0.49999053  0.30660916     0.83300
C2938       C  0.74998067  0.49979092  0.38067031     0.89600
O2939       O  0.77494323  0.70450008  0.34398342    -0.74200
O2940       O  0.77505408  0.79509988  0.34342007    -0.75100
O2941       O  0.77512377  0.75016969  0.37192135    -0.63800
O2942       O  0.77496095  0.74897507  0.31550900    -0.72200
O2943       O  0.72487157  0.75091306  0.31556107    -0.71700
O2944       O  0.72500428  0.74955663  0.37197195    -0.63000
O2945       O  0.72502110  0.79531013  0.34409515    -0.75500
O2946       O  0.72490722  0.70472097  0.34342113    -0.74300
Cu2947     Cu  0.77676672  0.74970797  0.34371027     1.04600
Cu2948     Cu  0.72320566  0.75010463  0.34376914     1.04300
C2949       C  0.74988954  0.69023888  0.34367334     0.92000
C2950       C  0.75006899  0.80957773  0.34373528     0.91200
C2951       C  0.75008117  0.74984855  0.38082480     0.83300
C2952       C  0.74989994  0.74995003  0.30665652     0.89600
O2953       O  0.97498261  0.49984731  0.46672837    -0.74200
O2954       O  0.97490862  0.49979780  0.41037890    -0.75100
O2955       O  0.97500137  0.95451772  0.43856310    -0.63800
O2956       O  0.97493460  0.54511985  0.43852826    -0.72200
O2957       O  0.52499096  0.54511077  0.43847943    -0.71700
O2958       O  0.52505873  0.95453277  0.43858767    -0.63000
O2959       O  0.52505357  0.49975993  0.41036904    -0.75500
O2960       O  0.52503158  0.49993854  0.46671188    -0.74300
Cu2961     Cu  0.97321175  0.49981822  0.43855271     1.04600
Cu2962     Cu  0.52676820  0.49982676  0.43854206     1.04300
C2963       C  0.50001778  0.49994919  0.47566457     0.92000
C2964       C  0.49999035  0.49979346  0.40150715     0.91200
C2965       C  0.50004953  0.94016226  0.43855841     0.83300
C2966       C  0.49996583  0.55949387  0.43846511     0.89600
O2967       O  0.97498629  0.74979303  0.41018183    -0.74200
O2968       O  0.97510798  0.74987454  0.46658065    -0.75100
O2969       O  0.97508466  0.79512306  0.43833279    -0.63800
O2970       O  0.97502594  0.70454400  0.43837451    -0.72200
O2971       O  0.52506047  0.70450026  0.43829700    -0.71700
O2972       O  0.52512523  0.79510011  0.43836750    -0.63000
O2973       O  0.52513118  0.74978232  0.46655303    -0.75500
O2974       O  0.52510014  0.74985412  0.41015498    -0.74300
Cu2975     Cu  0.97331264  0.74983401  0.43837145     1.04600
Cu2976     Cu  0.52684462  0.74980177  0.43834295     1.04300
C2977       C  0.50002891  0.74985114  0.40129923     0.92000
C2978       C  0.50012010  0.74986918  0.47551822     0.91200
C2979       C  0.50010683  0.80949680  0.43834476     0.83300
C2980       C  0.50003154  0.69016143  0.43830644     0.89600
O2981       O  0.72501945  0.49973030  0.41018100    -0.74200
O2982       O  0.72529375  0.49995074  0.46658625    -0.75100
O2983       O  0.72525068  0.54512350  0.43828249    -0.63800
O2984       O  0.72492572  0.95452907  0.43841115    -0.72200
O2985       O  0.77496676  0.95444369  0.43836347    -0.71700
O2986       O  0.77529227  0.54504121  0.43827113    -0.63000
O2987       O  0.77532662  0.49981062  0.46653244    -0.75500
O2988       O  0.77514508  0.49971960  0.41010391    -0.74300
Cu2989     Cu  0.72343049  0.49983457  0.43837467     1.04600
Cu2990     Cu  0.77696803  0.49974140  0.43830277     1.04300
C2991       C  0.75005182  0.49973492  0.40126902     0.92000
C2992       C  0.75032818  0.49993490  0.47551453     0.91200
C2993       C  0.75028358  0.55945337  0.43824478     0.83300
C2994       C  0.74993316  0.94011482  0.43839513     0.89600
O2995       O  0.72504627  0.74980431  0.41032132    -0.74200
O2996       O  0.72504900  0.74971693  0.46670614    -0.75100
O2997       O  0.72496748  0.79505973  0.43856006    -0.63800
O2998       O  0.72518352  0.70446628  0.43845903    -0.72200
O2999       O  0.77522495  0.70451060  0.43850778    -0.71700
O3000       O  0.77500900  0.79509846  0.43851578    -0.63000
O3001       O  0.77508760  0.74983389  0.46670325    -0.75500
O3002       O  0.77516979  0.74982022  0.41030442    -0.74300
Cu3003     Cu  0.72332318  0.74975567  0.43851552     1.04600
Cu3004     Cu  0.77686335  0.74981486  0.43851107     1.04300
C3005       C  0.75010538  0.74982148  0.40143550     0.92000
C3006       C  0.75006199  0.74980843  0.47564928     0.91200
C3007       C  0.74996507  0.80945034  0.43853876     0.83300
C3008       C  0.75022975  0.69011695  0.43844753     0.89600
O3009       O  0.50010890  0.97520102  0.06580180    -0.74200
O3010       O  0.50001675  0.97522322  0.12217087    -0.75100
O3011       O  0.95477223  0.97523922  0.09399108    -0.63800
O3012       O  0.54535480  0.97521098  0.09397833    -0.72200
O3013       O  0.54531488  0.52525198  0.09392728    -0.71700
O3014       O  0.95473335  0.52530909  0.09395940    -0.63000
O3015       O  0.50000851  0.52532074  0.12214797    -0.75500
O3016       O  0.49999478  0.52521501  0.06575410    -0.74300
Cu3017     Cu  0.50006247  0.97348776  0.09398322     1.04600
Cu3018     Cu  0.50001149  0.52700298  0.09393932     1.04300
C3019       C  0.50006525  0.50017823  0.05682970     0.92000
C3020       C  0.49998478  0.50026518  0.13103032     0.91200
C3021       C  0.94037447  0.50029692  0.09399416     0.83300
C3022       C  0.55971250  0.50023466  0.09395783     0.89600
O3023       O  0.50025228  0.72495424  0.06593815    -0.74200
O3024       O  0.50021004  0.72506904  0.12231785    -0.75100
O3025       O  0.95493766  0.72469179  0.09410168    -0.63800
O3026       O  0.54552543  0.72558681  0.09415067    -0.72200
O3027       O  0.54511304  0.77562377  0.09415404    -0.71700
O3028       O  0.95454372  0.77472803  0.09404542    -0.63000
O3029       O  0.49971208  0.77519209  0.12227401    -0.75500
O3030       O  0.49994662  0.77498865  0.06590545    -0.74300
Cu3031     Cu  0.50026192  0.72327478  0.09414122     1.04600
Cu3032     Cu  0.49979516  0.77681215  0.09409211     1.04300
C3033       C  0.50013475  0.74995617  0.05697587     0.92000
C3034       C  0.49993425  0.75015338  0.13116479     0.91200
C3035       C  0.94036743  0.74960382  0.09409142     0.83300
C3036       C  0.55969009  0.75071707  0.09417541     0.89600
O3037       O  0.75034770  0.97519409  0.06598629    -0.74200
O3038       O  0.74987450  0.97516229  0.12237818    -0.75100
O3039       O  0.70478851  0.97518375  0.09408106    -0.63800
O3040       O  0.79538529  0.97523074  0.09434260    -0.72200
O3041       O  0.79531420  0.52533041  0.09409601    -0.71700
O3042       O  0.70472619  0.52527639  0.09423294    -0.63000
O3043       O  0.75010971  0.52540849  0.12236227    -0.75500
O3044       O  0.74990554  0.52519795  0.06594598    -0.74300
Cu3045     Cu  0.75009848  0.97345339  0.09419594     1.04600
Cu3046     Cu  0.75001264  0.52704535  0.09415824     1.04300
C3047       C  0.75012606  0.50015127  0.05702444     0.92000
C3048       C  0.75001248  0.50035682  0.13124540     0.91200
C3049       C  0.69038905  0.50025156  0.09417342     0.83300
C3050       C  0.80972198  0.50032078  0.09423009     0.89600
O3051       O  0.75007699  0.72517119  0.12209731    -0.74200
O3052       O  0.74920428  0.72512869  0.06569170    -0.75100
O3053       O  0.79511720  0.72465351  0.09368177    -0.63800
O3054       O  0.70453394  0.72569953  0.09414225    -0.72200
O3055       O  0.70491621  0.77572963  0.09360623    -0.71700
O3056       O  0.79550603  0.77468505  0.09415408    -0.63000
O3057       O  0.75093234  0.77517570  0.06566444    -0.75500
O3058       O  0.74981294  0.77528914  0.12208591    -0.74300
Cu3059     Cu  0.74972847  0.72342276  0.09389684     1.04600
Cu3060     Cu  0.75030072  0.77696386  0.09387072     1.04300
C3061       C  0.74991085  0.75023576  0.13097195     0.92000
C3062       C  0.75007475  0.75013729  0.05676246     0.91200
C3063       C  0.80968435  0.74955059  0.09395500     0.83300
C3064       C  0.69035425  0.75083050  0.09390944     0.89600
O3065       O  0.95448056  0.52518808  0.18846948    -0.74200
O3066       O  0.54506638  0.52522199  0.18905874    -0.75100
O3067       O  0.50020885  0.52529931  0.16053623    -0.63800
O3068       O  0.49888815  0.52518939  0.21696458    -0.72200
O3069       O  0.50083438  0.97509457  0.21693662    -0.71700
O3070       O  0.49961820  0.97519994  0.16051303    -0.63000
O3071       O  0.54527576  0.97519687  0.18841711    -0.75500
O3072       O  0.95469056  0.97513452  0.18898378    -0.74300
Cu3073     Cu  0.49968206  0.52697001  0.18875260     1.04600
Cu3074     Cu  0.50007659  0.97341551  0.18871474     1.04300
C3075       C  0.94020595  0.50014411  0.18875491     0.92000
C3076       C  0.55953492  0.50023371  0.18874146     0.91200
C3077       C  0.49992720  0.50025411  0.15164090     0.83300
C3078       C  0.49986444  0.50012726  0.22581452     0.89600
O3079       O  0.95441199  0.77484179  0.18849867    -0.74200
O3080       O  0.54500265  0.77541720  0.18913579    -0.75100
O3081       O  0.50014320  0.77526515  0.16061779    -0.63800
O3082       O  0.49883490  0.77524125  0.21697352    -0.72200
O3083       O  0.50087780  0.72515184  0.21695572    -0.71700
O3084       O  0.49959451  0.72514210  0.16062977    -0.63000
O3085       O  0.54529145  0.72538584  0.18848282    -0.75500
O3086       O  0.95468314  0.72480874  0.18908676    -0.74300
Cu3087     Cu  0.49961228  0.77699426  0.18880214     1.04600
Cu3088     Cu  0.50009925  0.72342985  0.18879899     1.04300
C3089       C  0.94017661  0.74977504  0.18880435     0.92000
C3090       C  0.55951750  0.75045753  0.18883683     0.91200
C3091       C  0.49988373  0.75019375  0.15175531     0.83300
C3092       C  0.49987503  0.75018886  0.22583041     0.89600
O3093       O  0.75032634  0.52538480  0.16073127    -0.74200
O3094       O  0.74878035  0.52520900  0.21705882    -0.75100
O3095       O  0.79507784  0.52525781  0.18931676    -0.63800
O3096       O  0.70448003  0.52522864  0.18854959    -0.72200
O3097       O  0.70467616  0.97520287  0.18920181    -0.71700
O3098       O  0.79525691  0.97523567  0.18855649    -0.63000
O3099       O  0.75080986  0.97523333  0.21702672    -0.75500
O3100       O  0.74955194  0.97516891  0.16070373    -0.74300
Cu3101     Cu  0.74968962  0.52702011  0.18891450     1.04600
Cu3102     Cu  0.75005035  0.97346229  0.18887377     1.04300
C3103       C  0.74998624  0.50034378  0.15183838     0.92000
C3104       C  0.74971128  0.50013458  0.22588778     0.91200
C3105       C  0.80953329  0.50026188  0.18896644     0.83300
C3106       C  0.69020133  0.50018479  0.18884369     0.89600
O3107       O  0.70458237  0.72530731  0.18895357    -0.74200
O3108       O  0.79516466  0.72495975  0.18841497    -0.75100
O3109       O  0.75064811  0.72503420  0.21687308    -0.63800
O3110       O  0.74954743  0.72516056  0.16045603    -0.72200
O3111       O  0.75011657  0.77527521  0.16048517    -0.71700
O3112       O  0.74911312  0.77513389  0.21691564    -0.63000
O3113       O  0.79512114  0.77499618  0.18891819    -0.75500
O3114       O  0.70452918  0.77534455  0.18852004    -0.74300
Cu3115     Cu  0.74995184  0.72337186  0.18866709     1.04600
Cu3116     Cu  0.74975041  0.77693383  0.18870688     1.04300
C3117       C  0.69018517  0.75034026  0.18878025     0.92000
C3118       C  0.80951233  0.74996053  0.18868553     0.91200
C3119       C  0.74988421  0.75006584  0.22577316     0.83300
C3120       C  0.74984863  0.75022897  0.15158951     0.89600
O3121       O  0.50014979  0.97459286  0.91026766    -0.74200
O3122       O  0.50009146  0.97489890  0.96664212    -0.75100
O3123       O  0.95479273  0.97467744  0.93843316    -0.63800
O3124       O  0.54539428  0.97487706  0.93847139    -0.72200
O3125       O  0.54527879  0.52488672  0.93837351    -0.71700
O3126       O  0.95467665  0.52470295  0.93836813    -0.63000
O3127       O  0.49991917  0.52492023  0.96655869    -0.75500
O3128       O  0.50000670  0.52472497  0.91020193    -0.74300
Cu3129     Cu  0.50011005  0.97301621  0.93846324     1.04600
Cu3130     Cu  0.49997339  0.52655168  0.93837480     1.04300
C3131       C  0.50008190  0.99962757  0.90136717     0.92000
C3132       C  0.49997835  0.99995307  0.97554728     0.91200
C3133       C  0.94037361  0.99968345  0.93836478     0.83300
C3134       C  0.55969947  0.99992207  0.93841090     0.89600
O3135       O  0.50021772  0.72489542  0.91029241    -0.74200
O3136       O  0.50012367  0.72493042  0.96668280    -0.75100
O3137       O  0.95484086  0.72468428  0.93850294    -0.63800
O3138       O  0.54546402  0.72508557  0.93848989    -0.72200
O3139       O  0.54533054  0.77512376  0.93832812    -0.71700
O3140       O  0.95469540  0.77472248  0.93855714    -0.63000
O3141       O  0.50024479  0.77496416  0.96668866    -0.75500
O3142       O  0.49985985  0.77501639  0.91029378    -0.74300
Cu3143     Cu  0.50017389  0.72319008  0.93848573     1.04600
Cu3144     Cu  0.50003119  0.77672628  0.93848495     1.04300
C3145       C  0.50004209  0.74995401  0.90141918     0.92000
C3146       C  0.50021271  0.74994472  0.97563314     0.91200
C3147       C  0.94039734  0.74967304  0.93851561     0.83300
C3148       C  0.55976765  0.75013319  0.93836316     0.89600
O3149       O  0.70475056  0.97494855  0.93855923    -0.74200
O3150       O  0.79533510  0.97476971  0.93840386    -0.75100
O3151       O  0.75019603  0.97498220  0.96671811    -0.63800
O3152       O  0.74996345  0.97469054  0.91029656    -0.72200
O3153       O  0.75007723  0.52484388  0.91025253    -0.71700
O3154       O  0.74993248  0.52487506  0.96666284    -0.63000
O3155       O  0.79532536  0.52474561  0.93844720    -0.75500
O3156       O  0.70473106  0.52492212  0.93838824    -0.74300
Cu3157     Cu  0.75005264  0.97310995  0.93850309     1.04600
Cu3158     Cu  0.75002133  0.52658487  0.93844391     1.04300
C3159       C  0.69037290  0.99997813  0.93842968     0.92000
C3160       C  0.80970953  0.99977130  0.93837828     0.91200
C3161       C  0.75010227  0.00002886  0.97563935     0.83300
C3162       C  0.75003083  0.99972054  0.90139036     0.89600
O3163       O  0.74990351  0.77495257  0.91032026    -0.74200
O3164       O  0.75073543  0.77501268  0.96671265    -0.75100
O3165       O  0.79545754  0.77478440  0.93829617    -0.63800
O3166       O  0.70487080  0.77513131  0.93868990    -0.72200
O3167       O  0.70470804  0.72509324  0.93830858    -0.71700
O3168       O  0.79528156  0.72474984  0.93876975    -0.63000
O3169       O  0.74935429  0.72495191  0.96674488    -0.75500
O3170       O  0.75031978  0.72483145  0.91035574    -0.74300
Cu3171     Cu  0.75023205  0.77671460  0.93851021     1.04600
Cu3172     Cu  0.74992706  0.72316489  0.93855029     1.04300
C3173       C  0.75010474  0.74987366  0.90146385     0.92000
C3174       C  0.75004428  0.74999788  0.97564159     0.91200
C3175       C  0.80973914  0.74971241  0.93851363     0.83300
C3176       C  0.69042114  0.75016284  0.93845509     0.89600
O3177       O  0.52512623  0.95499420  0.59399927    -0.74200
O3178       O  0.52511933  0.54558877  0.59410631    -0.75100
O3179       O  0.52513373  0.50020808  0.62221667    -0.63800
O3180       O  0.52514463  0.50037788  0.56587245    -0.72200
O3181       O  0.97510686  0.50027366  0.56586658    -0.71700
O3182       O  0.97500023  0.50033612  0.62218475    -0.63000
O3183       O  0.97508878  0.54560751  0.59401846    -0.75500
O3184       O  0.97510538  0.95501750  0.59407364    -0.74300
Cu3185     Cu  0.52687797  0.50029476  0.59404796     1.04600
Cu3186     Cu  0.97333922  0.00031039  0.59404760     1.04300
C3187       C  0.50010647  0.94064149  0.59404551     0.92000
C3188       C  0.50009510  0.55997520  0.59409647     0.91200
C3189       C  0.50005683  0.50024695  0.63107840     0.83300
C3190       C  0.50012144  0.50033999  0.55694175     0.89600
O3191       O  0.97488674  0.75032702  0.62223363    -0.74200
O3192       O  0.97511925  0.75028763  0.56583962    -0.75100
O3193       O  0.97503951  0.70501656  0.59406158    -0.63800
O3194       O  0.97505434  0.79561793  0.59404978    -0.72200
O3195       O  0.52509860  0.79556596  0.59412590    -0.71700
O3196       O  0.52508561  0.70498122  0.59406212    -0.63000
O3197       O  0.52512582  0.75031201  0.56585938    -0.75500
O3198       O  0.52507306  0.75018958  0.62227487    -0.74300
Cu3199     Cu  0.97328705  0.75031807  0.59404125     1.04600
Cu3200     Cu  0.52683599  0.75026572  0.59407779     1.04300
C3201       C  0.49998870  0.75018420  0.63113345     0.92000
C3202       C  0.50011816  0.75031213  0.55690259     0.91200
C3203       C  0.50006568  0.69063238  0.59407217     0.83300
C3204       C  0.50008204  0.80996612  0.59413708     0.89600
O3205       O  0.72487736  0.00018468  0.62232917    -0.74200
O3206       O  0.72491316  0.00016830  0.56588446    -0.75100
O3207       O  0.72515115  0.95488905  0.59413012    -0.63800
O3208       O  0.72479770  0.54550627  0.59407770    -0.72200
O3209       O  0.77483841  0.54560407  0.59421010    -0.71700
O3210       O  0.77519120  0.95501270  0.59407250    -0.63000
O3211       O  0.77520871  0.50040385  0.56591813    -0.75500
O3212       O  0.77494501  0.50023057  0.62235254    -0.74300
Cu3213     Cu  0.72316088  0.00017792  0.59411239     1.04600
Cu3214     Cu  0.77680455  0.50032697  0.59414987     1.04300
C3215       C  0.74994508  0.00016409  0.63119549     0.92000
C3216       C  0.75022936  0.50031330  0.55693034     0.91200
C3217       C  0.75022164  0.94057804  0.59411893     0.83300
C3218       C  0.74977593  0.55992493  0.59415380     0.89600
O3219       O  0.72501795  0.75036680  0.56591453    -0.74200
O3220       O  0.72498583  0.75025333  0.62228173    -0.75100
O3221       O  0.72524450  0.79561368  0.59413449    -0.63800
O3222       O  0.72480586  0.70503274  0.59405547    -0.72200
O3223       O  0.77484839  0.70485161  0.59403776    -0.71700
O3224       O  0.77528548  0.79544318  0.59414963    -0.63000
O3225       O  0.77511256  0.75002926  0.62227556    -0.75500
O3226       O  0.77505784  0.75021698  0.56590247    -0.74300
Cu3227     Cu  0.72327485  0.75033347  0.59409632     1.04600
Cu3228     Cu  0.77681743  0.75012667  0.59408835     1.04300
C3229       C  0.75003809  0.75028534  0.55696562     0.92000
C3230       C  0.75004486  0.75009532  0.63115035     0.91200
C3231       C  0.75030294  0.80990122  0.59415927     0.83300
C3232       C  0.74978539  0.69057312  0.59404668     0.89600
C3233       C  0.77764646  0.89101497  0.59422079    -0.14600
C3234       C  0.75030726  0.90714773  0.59416421     0.07600
C3235       C  0.72300944  0.89101412  0.59415071    -0.14600
C3236       C  0.72302928  0.85947586  0.59416244    -0.14600
C3237       C  0.75035206  0.84333197  0.59419129     0.07600
C3238       C  0.77766641  0.85945486  0.59423373    -0.14600
H3239       H  0.79906564  0.90276007  0.59424643     0.11600
H3240       H  0.70155388  0.90274965  0.59411750     0.11600
H3241       H  0.70159962  0.84775353  0.59413642     0.11600
H3242       H  0.79911111  0.84769707  0.59426639     0.11600
C3243       C  0.77701606  0.60945850  0.59459022    -0.14600
C3244       C  0.74971366  0.59334815  0.59415783     0.07600
C3245       C  0.72239561  0.60949523  0.59369697    -0.14600
C3246       C  0.72240082  0.64105120  0.59365389    -0.14600
C3247       C  0.74971934  0.65715087  0.59407149     0.07600
C3248       C  0.77702124  0.64099390  0.59454441    -0.14600
H3249       H  0.79845339  0.59770763  0.59496722     0.11600
H3250       H  0.70097614  0.59776521  0.59334817     0.11600
H3251       H  0.70097315  0.65282373  0.59327857     0.11600
H3252       H  0.79845090  0.65270316  0.59489502     0.11600
C3253       C  0.52741372  0.85950193  0.59417866    -0.14600
C3254       C  0.50009249  0.84339687  0.59418315     0.07600
C3255       C  0.97278672  0.85955396  0.59415543    -0.14600
C3256       C  0.97280171  0.89110081  0.59414544    -0.14600
C3257       C  0.50010496  0.90721189  0.59411537     0.07600
C3258       C  0.52742242  0.89105154  0.59414360    -0.14600
H3259       H  0.54885404  0.84773615  0.59418073     0.11600
H3260       H  0.95135010  0.84784343  0.59416648     0.11600
H3261       H  0.95136309  0.90286868  0.59414981     0.11600
H3262       H  0.54885669  0.90276799  0.59412487     0.11600
C3263       C  0.97277814  0.60953458  0.59388023    -0.14600
C3264       C  0.50008838  0.59340087  0.59413734     0.07600
C3265       C  0.52739851  0.60951518  0.59442477    -0.14600
C3266       C  0.52739196  0.64106195  0.59441770    -0.14600
C3267       C  0.50007086  0.65720777  0.59412150     0.07600
C3268       C  0.97276731  0.64108169  0.59389478    -0.14600
H3269       H  0.95135338  0.59780732  0.59365157     0.11600
H3270       H  0.54884036  0.59775973  0.59465006     0.11600
H3271       H  0.54881858  0.65278786  0.59463926     0.11600
H3272       H  0.95132358  0.65283492  0.59367499     0.11600
C3273       C  0.89082246  0.77694252  0.93877442    -0.14600
C3274       C  0.90697157  0.74963049  0.93846558     0.07600
C3275       C  0.89086013  0.72231774  0.93809755    -0.14600
C3276       C  0.85930255  0.72232124  0.93810030    -0.14600
C3277       C  0.84316372  0.74964156  0.93846115     0.07600
C3278       C  0.85928412  0.77694632  0.93876877    -0.14600
H3279       H  0.90254053  0.79837227  0.93904660     0.11600
H3280       H  0.90262621  0.70088380  0.93781457     0.11600
H3281       H  0.84756312  0.70090443  0.93781669     0.11600
H3282       H  0.84753840  0.79839175  0.93904211     0.11600
C3283       C  0.60935367  0.72292530  0.93929162    -0.14600
C3284       C  0.59319282  0.75018276  0.93827146     0.07600
C3285       C  0.60929148  0.77745761  0.93720167    -0.14600
C3286       C  0.64085001  0.77747609  0.93724078    -0.14600
C3287       C  0.65699900  0.75021519  0.93834035     0.07600
C3288       C  0.64089211  0.72294330  0.93932213    -0.14600
H3289       H  0.59764405  0.70152944  0.94013170     0.11600
H3290       H  0.59751368  0.79884382  0.93633694     0.11600
H3291       H  0.65258303  0.79885876  0.93639684     0.11600
H3292       H  0.65265048  0.70154480  0.94018468     0.11600
C3293       C  0.89082156  0.97237304  0.93817593    -0.14600
C3294       C  0.90694693  0.99967789  0.93828796     0.07600
C3295       C  0.89078857  0.52696734  0.93831650    -0.14600
C3296       C  0.85924390  0.52698125  0.93830299    -0.14600
C3297       C  0.84313639  0.99973212  0.93828350     0.07600
C3298       C  0.85926917  0.97239766  0.93817129    -0.14600
H3299       H  0.90257223  0.95092563  0.93811157     0.11600
H3300       H  0.90251336  0.54839603  0.93837705     0.11600
H3301       H  0.84749427  0.54842943  0.93835558     0.11600
H3302       H  0.84752886  0.95097744  0.93810615     0.11600
C3303       C  0.64084213  0.97268950  0.93895391    -0.14600
C3304       C  0.65694331  0.99998963  0.93834399     0.07600
C3305       C  0.64078384  0.52722599  0.93765526    -0.14600
C3306       C  0.60923109  0.52721869  0.93765265    -0.14600
C3307       C  0.59312853  0.99996532  0.93834706     0.07600
C3308       C  0.60929729  0.97267500  0.93895715    -0.14600
H3309       H  0.65260874  0.95126684  0.93947338     0.11600
H3310       H  0.65250660  0.54863975  0.93712357     0.11600
H3311       H  0.59745967  0.54863759  0.93711749     0.11600
H3312       H  0.59758921  0.95125303  0.93947799     0.11600
C3313       C  0.89060165  0.72247910  0.18942216    -0.14600
C3314       C  0.90674824  0.74974869  0.18882246     0.07600
C3315       C  0.89063112  0.77707999  0.18822329    -0.14600
C3316       C  0.85909075  0.77714613  0.18819334    -0.14600
C3317       C  0.84293760  0.74988669  0.18874713     0.07600
C3318       C  0.85904424  0.72254488  0.18937637    -0.14600
H3319       H  0.90233754  0.70103903  0.18992046     0.11600
H3320       H  0.90237754  0.79848349  0.18775407     0.11600
H3321       H  0.84736985  0.79859469  0.18769671     0.11600
H3322       H  0.84727774  0.70115126  0.18985272     0.11600
C3323       C  0.60907533  0.77778804  0.18939188    -0.14600
C3324       C  0.59294524  0.75050202  0.18890215     0.07600
C3325       C  0.60907873  0.72317329  0.18846707    -0.14600
C3326       C  0.64061886  0.72312518  0.18846449    -0.14600
C3327       C  0.65675759  0.75040032  0.18887961     0.07600
C3328       C  0.64063372  0.77774008  0.18937352    -0.14600
H3329       H  0.59732600  0.79922785  0.18976831     0.11600
H3330       H  0.59734549  0.70175737  0.18810169     0.11600
H3331       H  0.65235142  0.70167586  0.18808763     0.11600
H3332       H  0.65238711  0.79914628  0.18974402     0.11600
C3333       C  0.89065502  0.97288611  0.18789153    -0.14600
C3334       C  0.90677858  0.50014565  0.18882591     0.07600
C3335       C  0.89065346  0.52744645  0.18981301    -0.14600
C3336       C  0.85910359  0.52749298  0.18989975    -0.14600
C3337       C  0.84296414  0.50024642  0.18897594     0.07600
C3338       C  0.85910318  0.97294048  0.18794489    -0.14600
H3339       H  0.90239379  0.95146774  0.18711027     0.11600
H3340       H  0.90240188  0.54882931  0.19055606     0.11600
H3341       H  0.84736578  0.54891043  0.19068847     0.11600
H3342       H  0.84735362  0.95155845  0.18720614     0.11600
C3343       C  0.60911917  0.97291140  0.18863826    -0.14600
C3344       C  0.59296281  0.50024070  0.18878040     0.07600
C3345       C  0.60908198  0.52753704  0.18902341    -0.14600
C3346       C  0.64063073  0.52750685  0.18904852    -0.14600
C3347       C  0.65677440  0.50017448  0.18884606     0.07600
C3348       C  0.64066811  0.97288129  0.18869387    -0.14600
H3349       H  0.59738860  0.95148655  0.18845748     0.11600
H3350       H  0.59732925  0.54898196  0.18918481     0.11600
H3351       H  0.65236200  0.54893044  0.18923567     0.11600
H3352       H  0.65242204  0.95143648  0.18853950     0.11600
C3353       C  0.73752896  0.72580635  0.02603940    -0.14600
C3354       C  0.75007630  0.75009951  0.03601624     0.07600
C3355       C  0.76261405  0.77435767  0.02599930    -0.14600
C3356       C  0.76260134  0.77432452  0.00635730    -0.14600
C3357       C  0.75005260  0.75003282  0.99638314     0.07600
C3358       C  0.73752129  0.72577107  0.00639756    -0.14600
H3359       H  0.72745868  0.70696468  0.03343317     0.11600
H3360       H  0.77268875  0.79322482  0.03336137     0.11600
H3361       H  0.77266928  0.79316480  0.99896086     0.11600
H3362       H  0.72744871  0.70690442  0.99903337     0.11600
C3363       C  0.75262397  0.97294379  0.02617618    -0.14600
C3364       C  0.75014896  0.50007619  0.03620426     0.07600
C3365       C  0.74775421  0.52725103  0.02612346    -0.14600
C3366       C  0.74773703  0.52718298  0.00647852    -0.14600
C3367       C  0.75011102  0.49993827  0.99645938     0.07600
C3368       C  0.75259844  0.97290302  0.00653148    -0.14600
H3369       H  0.75457463  0.95161140  0.03349954     0.11600
H3370       H  0.74581033  0.54862193  0.03340787     0.11600
H3371       H  0.74578189  0.54850434  0.99914514     0.11600
H3372       H  0.75453460  0.95154221  0.99923741     0.11600
C3373       C  0.89084676  0.72209856  0.09454897    -0.14600
C3374       C  0.90693525  0.74943374  0.09413370     0.07600
C3375       C  0.89075510  0.77671648  0.09374692    -0.14600
C3376       C  0.85923106  0.77669450  0.09371010    -0.14600
C3377       C  0.84311596  0.74939346  0.09405379     0.07600
C3378       C  0.85926854  0.72207639  0.09450372    -0.14600
H3379       H  0.90264434  0.70068416  0.09489632     0.11600
H3380       H  0.90243974  0.79816082  0.09343629     0.11600
H3381       H  0.84748938  0.79813828  0.09336999     0.11600
H3382       H  0.84752682  0.70066144  0.09482330     0.11600
C3383       C  0.60930907  0.72362417  0.09436670    -0.14600
C3384       C  0.59311681  0.75090435  0.09420564     0.07600
C3385       C  0.60918701  0.77825600  0.09402373    -0.14600
C3386       C  0.64076220  0.77829402  0.09392978    -0.14600
C3387       C  0.65692739  0.75097660  0.09402814     0.07600
C3388       C  0.64083032  0.72366225  0.09428094    -0.14600
H3389       H  0.59763659  0.70216898  0.09453597     0.11600
H3390       H  0.59737695  0.79967111  0.09391819     0.11600
H3391       H  0.65249097  0.79972092  0.09376810     0.11600
H3392       H  0.65258357  0.70221796  0.09439190     0.11600
C3393       C  0.49887017  0.72265309  0.02612526    -0.14600
C3394       C  0.50021454  0.74993594  0.03616764     0.07600
C3395       C  0.00166208  0.77748591  0.02609111    -0.14600
C3396       C  0.00166028  0.77743003  0.00644971    -0.14600
C3397       C  0.50026180  0.74993649  0.99644376     0.07600
C3398       C  0.49889014  0.72265332  0.00648504    -0.14600
H3399       H  0.49773335  0.70124976  0.03343555     0.11600
H3400       H  0.00279625  0.79890794  0.03338183     0.11600
H3401       H  0.00279149  0.79881272  0.99911600     0.11600
H3402       H  0.49776925  0.70124896  0.99917381     0.11600
C3403       C  0.89080193  0.52758543  0.09304939    -0.14600
C3404       C  0.90695120  0.50031327  0.09407003     0.07600
C3405       C  0.89085190  0.97300804  0.09521841    -0.14600
C3406       C  0.85930361  0.97300995  0.09531125    -0.14600
C3407       C  0.84314590  0.50033380  0.09423391     0.07600
C3408       C  0.85925237  0.52759334  0.09313231    -0.14600
H3409       H  0.90252855  0.54896526  0.09214679     0.11600
H3410       H  0.90261980  0.95161397  0.09606407     0.11600
H3411       H  0.84758468  0.95162567  0.09621424     0.11600
H3412       H  0.84748662  0.54899008  0.09228319     0.11600
C3413       C  0.60924915  0.52755481  0.09418762    -0.14600
C3414       C  0.59314312  0.50023882  0.09399948     0.07600
C3415       C  0.60929047  0.97289152  0.09387031    -0.14600
C3416       C  0.64084058  0.97288498  0.09393386    -0.14600
C3417       C  0.65695883  0.50024326  0.09414352     0.07600
C3418       C  0.64079868  0.52755927  0.09426301    -0.14600
H3419       H  0.59748425  0.54899390  0.09428701     0.11600
H3420       H  0.59756363  0.95146377  0.09372905     0.11600
H3421       H  0.65259998  0.95144249  0.09383516     0.11600
H3422       H  0.65251611  0.54899177  0.09440985     0.11600
C3423       C  0.49838976  0.52736934  0.02596991    -0.14600
C3424       C  0.50006440  0.50012792  0.03603258     0.07600
C3425       C  0.00168484  0.97283946  0.02602873    -0.14600
C3426       C  0.00167080  0.97277498  0.00639665    -0.14600
C3427       C  0.50002311  0.50000762  0.99632967     0.07600
C3428       C  0.49836846  0.52730982  0.00633553    -0.14600
H3429       H  0.49703890  0.54878315  0.03325916     0.11600
H3430       H  0.00304662  0.95146846  0.03336198     0.11600
H3431       H  0.00302364  0.95135831  0.99911204     0.11600
H3432       H  0.49700546  0.54868014  0.99900185     0.11600
C3433       C  0.77736462  0.75025435  0.50648640    -0.14600
C3434       C  0.75004955  0.74992693  0.49645298     0.07600
C3435       C  0.72272593  0.74976862  0.50649707    -0.14600
C3436       C  0.72272068  0.74991697  0.52613286    -0.14600
C3437       C  0.75003827  0.75022314  0.53616457     0.07600
C3438       C  0.77735956  0.75039866  0.52612098    -0.14600
H3439       H  0.79880432  0.75040376  0.49917387     0.11600
H3440       H  0.70129298  0.74952320  0.49919310     0.11600
H3441       H  0.70128237  0.74976573  0.53344673     0.11600
H3442       H  0.79879298  0.75064335  0.53342444     0.11600
C3443       C  0.72259993  0.89057472  0.43868816    -0.14600
C3444       C  0.74991436  0.90668737  0.43842183     0.07600
C3445       C  0.77723293  0.89053728  0.43819638    -0.14600
C3446       C  0.77723816  0.85899419  0.43824682    -0.14600
C3447       C  0.74993015  0.84287731  0.43851820     0.07600
C3448       C  0.72260518  0.85902274  0.43873853    -0.14600
H3449       H  0.70115857  0.90233561  0.43886939     0.11600
H3450       H  0.79866170  0.90225737  0.43797796     0.11600
H3451       H  0.79868447  0.84724197  0.43806113     0.11600
H3452       H  0.70118124  0.84729370  0.43895252     0.11600
C3453       C  0.77759487  0.60899445  0.43886943    -0.14600
C3454       C  0.75030046  0.59287991  0.43819889     0.07600
C3455       C  0.72299941  0.60902718  0.43753867    -0.14600
C3456       C  0.72298783  0.64057094  0.43761034    -0.14600
C3457       C  0.75027265  0.65668971  0.43833946     0.07600
C3458       C  0.77758334  0.64054636  0.43894206    -0.14600
H3459       H  0.79902133  0.59723478  0.43938962     0.11600
H3460       H  0.70158832  0.59730352  0.43697303     0.11600
H3461       H  0.70155738  0.65232206  0.43709007     0.11600
H3462       H  0.79899007  0.65227769  0.43950741     0.11600
C3463       C  0.77729891  0.00029085  0.50639522    -0.14600
C3464       C  0.75034405  0.50007605  0.49634337     0.07600
C3465       C  0.72302279  0.49996935  0.50639487    -0.14600
C3466       C  0.72299793  0.50007625  0.52603881    -0.14600
C3467       C  0.75029357  0.50029656  0.53609998     0.07600
C3468       C  0.77727722  0.00038866  0.52604322    -0.14600
H3469       H  0.79874403  0.00039902  0.49908955     0.11600
H3470       H  0.70159184  0.49978078  0.49908816     0.11600
H3471       H  0.70154835  0.49996200  0.53333826     0.11600
H3472       H  0.79870573  0.00056125  0.53335224     0.11600
C3473       C  0.52744537  0.75028477  0.50637906    -0.14600
C3474       C  0.50013002  0.74997195  0.49633868     0.07600
C3475       C  0.97284327  0.74975662  0.50639628    -0.14600
C3476       C  0.97284977  0.74987255  0.52603838    -0.14600
C3477       C  0.50012979  0.75024086  0.53608110     0.07600
C3478       C  0.52744544  0.75041850  0.52602416    -0.14600
H3479       H  0.54888178  0.75043803  0.49906347     0.11600
H3480       H  0.95140381  0.74952342  0.49909875     0.11600
H3481       H  0.95141356  0.74971760  0.53335269     0.11600
H3482       H  0.54887936  0.75065893  0.53332631     0.11600
C3483       C  0.97276585  0.89058917  0.43790770    -0.14600
C3484       C  0.50007330  0.90673423  0.43849006     0.07600
C3485       C  0.52739012  0.89059109  0.43896931    -0.14600
C3486       C  0.52740399  0.85904163  0.43889616    -0.14600
C3487       C  0.50010606  0.84292376  0.43834601     0.07600
C3488       C  0.97278405  0.85904178  0.43783020    -0.14600
H3489       H  0.95132784  0.90233860  0.43750032     0.11600
H3490       H  0.54880376  0.90232095  0.43942308     0.11600
H3491       H  0.54883972  0.84728630  0.43930371     0.11600
H3492       H  0.95136966  0.84731175  0.43737381     0.11600
C3493       C  0.97265088  0.60907225  0.43840697    -0.14600
C3494       C  0.49997088  0.59292098  0.43836056     0.07600
C3495       C  0.52729657  0.60901613  0.43822197    -0.14600
C3496       C  0.52731742  0.64056267  0.43817137    -0.14600
C3497       C  0.50000798  0.65673252  0.43826129     0.07600
C3498       C  0.97267680  0.64062083  0.43836120    -0.14600
H3499       H  0.95121158  0.59736492  0.43849172     0.11600
H3500       H  0.54873356  0.59724508  0.43816960     0.11600
H3501       H  0.54875616  0.65226945  0.43808581     0.11600
H3502       H  0.95124366  0.65239758  0.43841545     0.11600
C3503       C  0.97274582  0.49929770  0.50649832    -0.14600
C3504       C  0.50004319  0.50007560  0.49645705     0.07600
C3505       C  0.52737898  0.00096915  0.50645163    -0.14600
C3506       C  0.52740479  0.00107315  0.52608169    -0.14600
C3507       C  0.50010202  0.50030337  0.53615128     0.07600
C3508       C  0.97277818  0.49940542  0.52612734    -0.14600
H3509       H  0.95130911  0.49859454  0.49920970     0.11600
H3510       H  0.54879678  0.00159776  0.49912439     0.11600
H3511       H  0.54883767  0.00177240  0.53337424     0.11600
H3512       H  0.95136232  0.49877492  0.53345603     0.11600
C3513       C  0.76934204  0.73074734  0.27601999    -0.14600
C3514       C  0.74987024  0.74995884  0.28598441     0.07600
C3515       C  0.73039248  0.76919243  0.27605726    -0.14600
C3516       C  0.73079924  0.76961897  0.25641162    -0.14600
C3517       C  0.74987849  0.75002330  0.24644561     0.07600
C3518       C  0.76894336  0.73038445  0.25637419    -0.14600
H3519       H  0.78444192  0.71567729  0.28344514     0.11600
H3520       H  0.71529427  0.78424338  0.28351102     0.11600
H3521       H  0.71584155  0.78485839  0.24898030     0.11600
H3522       H  0.78390452  0.71516737  0.24891401     0.11600
C3523       C  0.72270690  0.89070226  0.34358319    -0.14600
C3524       C  0.75000452  0.90682658  0.34346551     0.07600
C3525       C  0.77734303  0.89068322  0.34340310    -0.14600
C3526       C  0.77737758  0.85913308  0.34348811    -0.14600
C3527       C  0.75007968  0.84300944  0.34364994     0.07600
C3528       C  0.72274170  0.85915363  0.34368675    -0.14600
H3529       H  0.70125789  0.90245095  0.34363372     0.11600
H3530       H  0.79876804  0.90241560  0.34329807     0.11600
H3531       H  0.79882634  0.84738290  0.34344345     0.11600
H3532       H  0.70131540  0.84742298  0.34379192     0.11600
C3533       C  0.77721972  0.60911058  0.34351407    -0.14600
C3534       C  0.74991614  0.59299564  0.34357014     0.07600
C3535       C  0.72258230  0.60914566  0.34359480    -0.14600
C3536       C  0.72255927  0.64069563  0.34360357    -0.14600
C3537       C  0.74986485  0.65680945  0.34360350     0.07600
C3538       C  0.77719681  0.64065801  0.34354099    -0.14600
H3539       H  0.79866562  0.59735578  0.34347982     0.11600
H3540       H  0.70115343  0.59741929  0.34361449     0.11600
H3541       H  0.70111499  0.65245275  0.34363881     0.11600
H3542       H  0.79862678  0.65238163  0.34351652     0.11600
C3543       C  0.76947276  0.98102152  0.27602127    -0.14600
C3544       C  0.74970725  0.50002170  0.28598286     0.07600
C3545       C  0.73023342  0.51928740  0.27609045    -0.14600
C3546       C  0.73060984  0.51970343  0.25646188    -0.14600
C3547       C  0.74966944  0.50007653  0.24651598     0.07600
C3548       C  0.76901102  0.98065468  0.25639691    -0.14600
H3549       H  0.78456959  0.96592703  0.28343449     0.11600
H3550       H  0.71516510  0.53435821  0.28355803     0.11600
H3551       H  0.71566538  0.53495520  0.24903141     0.11600
H3552       H  0.78393190  0.96542636  0.24891799     0.11600
C3553       C  0.51938951  0.73078542  0.27600122    -0.14600
C3554       C  0.49998696  0.75004411  0.28597061     0.07600
C3555       C  0.98053648  0.76913151  0.27605361    -0.14600
C3556       C  0.98087156  0.76950989  0.25642042    -0.14600
C3557       C  0.49992948  0.75015916  0.24647501     0.07600
C3558       C  0.51896617  0.73044873  0.25636648    -0.14600
H3559       H  0.53445890  0.71564054  0.28341970     0.11600
H3560       H  0.96550815  0.78427303  0.28352009     0.11600
H3561       H  0.96596685  0.78478046  0.24899915     0.11600
H3562       H  0.53385172  0.71520875  0.24889451     0.11600
C3563       C  0.97268095  0.89070373  0.34406408    -0.14600
C3564       C  0.49995882  0.90685182  0.34402629     0.07600
C3565       C  0.52729627  0.89071024  0.34404770    -0.14600
C3566       C  0.52732895  0.85916173  0.34398916    -0.14600
C3567       C  0.50002998  0.84303777  0.34393135     0.07600
C3568       C  0.97271787  0.85915277  0.34401648    -0.14600
H3569       H  0.95123050  0.90244956  0.34410696     0.11600
H3570       H  0.54872185  0.90244196  0.34405186     0.11600
H3571       H  0.54877761  0.84741338  0.34396245     0.11600
H3572       H  0.95129348  0.84741860  0.34402032     0.11600
C3573       C  0.52732555  0.64071732  0.34412439    -0.14600
C3574       C  0.49998552  0.65685139  0.34388762     0.07600
C3575       C  0.97269996  0.64070381  0.34389242    -0.14600
C3576       C  0.97273600  0.60915920  0.34398769    -0.14600
C3577       C  0.50006748  0.59304122  0.34406870     0.07600
C3578       C  0.52736370  0.60916924  0.34420832    -0.14600
H3579       H  0.54874850  0.65245401  0.34420645     0.11600
H3580       H  0.95125071  0.65244954  0.34376592     0.11600
H3581       H  0.95131207  0.59742442  0.34391396     0.11600
H3582       H  0.54881364  0.59742416  0.34435060     0.11600
C3583       C  0.97813970  0.51656201  0.27609513    -0.14600
C3584       C  0.50001149  0.50009182  0.28602692     0.07600
C3585       C  0.52186967  0.98365818  0.27602962    -0.14600
C3586       C  0.52147260  0.98323119  0.25637964    -0.14600
C3587       C  0.49990486  0.50010259  0.24646783     0.07600
C3588       C  0.97841934  0.51699177  0.25644525    -0.14600
H3589       H  0.96116975  0.52948443  0.28353217     0.11600
H3590       H  0.53887728  0.97072940  0.28341568     0.11600
H3591       H  0.53830485  0.97015502  0.24888820     0.11600
H3592       H  0.96155195  0.53007895  0.24900592     0.11600
C3593       C  0.89081361  0.72237231  0.84333218    -0.14600
C3594       C  0.90695778  0.74966774  0.84357841     0.07600
C3595       C  0.89083630  0.77700120  0.84378414    -0.14600
C3596       C  0.85928111  0.77703603  0.84380825    -0.14600
C3597       C  0.84314173  0.74974275  0.84362226     0.07600
C3598       C  0.85926813  0.72240710  0.84335294    -0.14600
H3599       H  0.90254571  0.70091454  0.84313098     0.11600
H3600       H  0.90258916  0.79841120  0.84397236     0.11600
H3601       H  0.84753749  0.79848339  0.84401030     0.11600
H3602       H  0.84752768  0.70098686  0.84316592     0.11600
C3603       C  0.60928159  0.77713479  0.84384081    -0.14600
C3604       C  0.59314087  0.74983821  0.84359579     0.07600
C3605       C  0.60926336  0.72250698  0.84330651    -0.14600
C3606       C  0.64081735  0.72247327  0.84333403    -0.14600
C3607       C  0.65695264  0.74976569  0.84364891     0.07600
C3608       C  0.64082531  0.77710119  0.84386460    -0.14600
H3609       H  0.59754900  0.79859170  0.84403896     0.11600
H3610       H  0.59751259  0.70109619  0.84308911     0.11600
H3611       H  0.65256286  0.70102639  0.84313208     0.11600
H3612       H  0.65256302  0.79852180  0.84407881     0.11600
C3613       C  0.89079377  0.52708001  0.84238815    -0.14600
C3614       C  0.90695765  0.99977438  0.84361500     0.07600
C3615       C  0.89086089  0.97250758  0.84479556    -0.14600
C3616       C  0.85931447  0.97246621  0.84475862    -0.14600
C3617       C  0.84314807  0.99969638  0.84356416     0.07600
C3618       C  0.85923870  0.52705779  0.84237235    -0.14600
H3619       H  0.90252123  0.54845511  0.84143175     0.11600
H3620       H  0.90263237  0.95113329  0.84579253     0.11600
H3621       H  0.84760269  0.95108608  0.84574189     0.11600
H3622       H  0.84746741  0.54843525  0.84139967     0.11600
C3623       C  0.60921144  0.52681363  0.84513323    -0.14600
C3624       C  0.59315643  0.99949503  0.84359301     0.07600
C3625       C  0.60933736  0.97231871  0.84201154    -0.14600
C3626       C  0.64089276  0.97237517  0.84201134    -0.14600
C3627       C  0.65696759  0.99960676  0.84358004     0.07600
C3628       C  0.64075800  0.52688224  0.84511905    -0.14600
H3629       H  0.59741875  0.54813723  0.84642893     0.11600
H3630       H  0.59763196  0.95097175  0.84075595     0.11600
H3631       H  0.65269094  0.95104978  0.84074869     0.11600
H3632       H  0.65245235  0.54822865  0.84641431     0.11600
C3633       C  0.77536604  0.73968786  0.75665659    -0.14600
C3634       C  0.74995246  0.74989889  0.74667231     0.07600
C3635       C  0.72453511  0.76000162  0.75671065    -0.14600
C3636       C  0.72470300  0.76025779  0.77635094    -0.14600
C3637       C  0.74995773  0.74970664  0.78620159     0.07600
C3638       C  0.77520366  0.73924094  0.77629444    -0.14600
H3639       H  0.79521691  0.73169139  0.74928270     0.11600
H3640       H  0.70468308  0.76806722  0.74937889     0.11600
H3641       H  0.70502898  0.76833777  0.78386970     0.11600
H3642       H  0.79488988  0.73111303  0.78376803     0.11600
C3643       C  0.72335439  0.85925399  0.68831148    -0.14600
C3644       C  0.75064241  0.84307731  0.68880584     0.07600
C3645       C  0.77796658  0.85916560  0.68932885    -0.14600
C3646       C  0.77798315  0.89073639  0.68936493    -0.14600
C3647       C  0.75067154  0.90689096  0.68886896     0.07600
C3648       C  0.72337077  0.89078002  0.68834415    -0.14600
H3649       H  0.70191418  0.84756660  0.68789273     0.11600
H3650       H  0.79938134  0.84737224  0.68972609     0.11600
H3651       H  0.79939581  0.90247144  0.68978255     0.11600
H3652       H  0.70192974  0.90252405  0.68794739     0.11600
C3653       C  0.72188241  0.60924376  0.68936058    -0.14600
C3654       C  0.74918183  0.59306055  0.68898843     0.07600
C3655       C  0.77650572  0.60914568  0.68858917    -0.14600
C3656       C  0.77655787  0.64067227  0.68854364    -0.14600
C3657       C  0.74928247  0.65687857  0.68889461     0.07600
C3658       C  0.72193471  0.64081626  0.68931052    -0.14600
H3659       H  0.70045315  0.59753043  0.68967767     0.11600
H3660       H  0.79794062  0.59738010  0.68829657     0.11600
H3661       H  0.79801481  0.65233664  0.68822101     0.11600
H3662       H  0.70052703  0.65263171  0.68959914     0.11600
C3663       C  0.73098833  0.98033764  0.75646391    -0.14600
C3664       C  0.75015832  0.99987217  0.74655702     0.07600
C3665       C  0.76900041  0.51934569  0.75646352    -0.14600
C3666       C  0.76867380  0.51971151  0.77609589    -0.14600
C3667       C  0.75013575  0.99975807  0.78604641     0.07600
C3668       C  0.73137831  0.97989430  0.77609524    -0.14600
H3669       H  0.71613036  0.96508187  0.74900048     0.11600
H3670       H  0.78382980  0.53463907  0.74899842     0.11600
H3671       H  0.78340513  0.53513962  0.78352210     0.11600
H3672       H  0.71665722  0.96444736  0.78352274     0.11600
C3673       C  0.97986948  0.73104277  0.75648094    -0.14600
C3674       C  0.99980928  0.74975078  0.74653055     0.07600
C3675       C  0.51972948  0.76879198  0.75645539    -0.14600
C3676       C  0.51944148  0.76914544  0.77609522    -0.14600
C3677       C  0.49987407  0.75006987  0.78604785     0.07600
C3678       C  0.98039890  0.73048850  0.77612132    -0.14600
H3679       H  0.96428227  0.71647843  0.74904247     0.11600
H3680       H  0.53524327  0.78342145  0.74899782     0.11600
H3681       H  0.53484547  0.78387688  0.78352409     0.11600
H3682       H  0.96506780  0.71569970  0.78357357     0.11600
C3683       C  0.52723785  0.89075609  0.68855178    -0.14600
C3684       C  0.99991381  0.90692964  0.68839562     0.07600
C3685       C  0.97255643  0.89086995  0.68810220    -0.14600
C3686       C  0.97246921  0.85931864  0.68819969    -0.14600
C3687       C  0.99974258  0.84311425  0.68856933     0.07600
C3688       C  0.52715166  0.85921107  0.68860610    -0.14600
H3689       H  0.54869088  0.90243405  0.68875033     0.11600
H3690       H  0.95114146  0.90267418  0.68785541     0.11600
H3691       H  0.95101727  0.84763668  0.68800435     0.11600
H3692       H  0.54856786  0.84741016  0.68884629     0.11600
C3693       C  0.97256616  0.60925610  0.68825309    -0.14600
C3694       C  0.99988596  0.59312039  0.68849759     0.07600
C3695       C  0.52725657  0.60927104  0.68872148    -0.14600
C3696       C  0.52725162  0.64082276  0.68875134    -0.14600
C3697       C  0.99987956  0.65692860  0.68849317     0.07600
C3698       C  0.97256503  0.64080396  0.68824353    -0.14600
H3699       H  0.95114259  0.59752281  0.68809549     0.11600
H3700       H  0.54870450  0.59752274  0.68885468     0.11600
H3701       H  0.54867519  0.65255698  0.68889568     0.11600
H3702       H  0.95111808  0.65255283  0.68809037     0.11600
C3703       C  0.98030155  0.98084222  0.75637428    -0.14600
C3704       C  0.50000660  0.99985108  0.74642002     0.07600
C3705       C  0.51971475  0.51877596  0.75638973    -0.14600
C3706       C  0.51932185  0.51914423  0.77603233    -0.14600
C3707       C  0.50002407  0.99977143  0.78595692     0.07600
C3708       C  0.98070261  0.98040816  0.77601718    -0.14600
H3709       H  0.96502070  0.96598433  0.74892721     0.11600
H3710       H  0.53499554  0.53366215  0.74895415     0.11600
H3711       H  0.53444643  0.53415016  0.78348187     0.11600
H3712       H  0.96558089  0.96537426  0.78345667     0.11600
loop_ 
_geom_bond_atom_site_label_1 
_geom_bond_atom_site_label_2 
_geom_bond_distance 
_geom_bond_site_symmetry_2 
_ccdc_geom_bond_type 
O1           Cu9   2.009       .  S
O1           C11   1.278       .  A
O2         Cu937   2.007   1_545  S
O2         C1868   1.277       .  A
O3           Cu9   2.004       .  S
O3         C1869   1.278       .  A
O4         Cu937   2.011   1_545  S
O4         C1870   1.279       .  A
O5          Cu10   2.006       .  S
O5           C14   1.278   1_455  A
O6         Cu938   2.013       .  S
O6           C13   1.279   1_455  A
O7          Cu10   2.006   1_565  S
O7           C12   1.277   1_565  A
O8         Cu938   2.009       .  S
O8         C1867   1.278   1_455  A
Cu9         O930   2.007       .  S
Cu9         O932   2.012       .  S
Cu9       Cu2794   2.373       .  S
Cu10        O934   2.013   1_545  S
Cu10        O936   2.008       .  S
Cu10      Cu2793   2.373   1_445  S
C11        O1864   1.277       .  A
C11        C2776   1.471       .  S
C12        O1858   1.277   1_455  A
C12         C405   1.465       .  S
C13        O1859   1.278       .  A
C13        C2756   1.481       .  S
C14        O1860   1.279       .  A
C14        C2766   1.481       .  S
O15         Cu23   2.010       .  S
O15          C25   1.278       .  A
O16         Cu23   2.008       .  S
O16          C26   1.278       .  A
O17         Cu23   2.005       .  S
O17          C27   1.278       .  A
O18         Cu23   2.013       .  S
O18          C28   1.279       .  A
O19         Cu24   2.004       .  S
O19        C1884   1.278   1_455  A
O20         Cu24   2.012       .  S
O20        C1883   1.279   1_455  A
O21         Cu24   2.008       .  S
O21        C1882   1.277   1_455  A
O22         Cu24   2.008       .  S
O22        C1881   1.277   1_455  A
Cu23      Cu1880   2.373       .  S
Cu24      Cu1879   2.373   1_455  S
C25        O1878   1.277       .  A
C25         C890   1.471       .  S
C26        O1877   1.277       .  A
C26        C2273   1.466       .  S
C27        O1876   1.279       .  A
C27         C913   1.481       .  S
C28        O1875   1.278       .  A
C28         C903   1.481       .  S
O29         Cu37   2.009   1_545  S
O29          C39   1.278       .  A
O30        Cu965   2.007       .  S
O30          C40   1.277       .  A
O31         Cu37   2.013   1_545  S
O31          C41   1.279       .  A
O32        Cu965   2.005       .  S
O32          C42   1.278       .  A
O33         Cu38   2.012       .  S
O33          C42   1.279       .  A
O34        Cu966   2.004       .  S
O34          C41   1.278       .  A
O35         Cu38   2.007       .  S
O35          C40   1.277       .  A
O36         Cu38   2.009       .  S
O36         C967   1.278       .  A
Cu37        O958   2.008       .  S
Cu37        O960   2.005       .  S
Cu37       Cu966   2.373   1_565  S
Cu38        O962   2.005       .  S
Cu38       Cu965   2.373       .  S
C39         O964   1.277   1_545  A
C39        C1359   1.467       .  S
C40         C880   1.469       .  S
C41         C870   1.481       .  S
C42         C863   1.481       .  S
O43         Cu51   2.007       .  S
O43          C53   1.278       .  A
O44         Cu51   2.011       .  S
O44          C54   1.279       .  A
O45         Cu51   2.008       .  S
O45          C55   1.278       .  A
O46         Cu51   2.008       .  S
O46          C56   1.277       .  A
O47         Cu52   2.008       .  S
O47          C56   1.277       .  A
O48         Cu52   2.008       .  S
O48          C55   1.278       .  A
O49         Cu52   2.006       .  S
O49          C54   1.278       .  A
O50         Cu52   2.010       .  S
O50          C53   1.279       .  A
Cu51        Cu52   2.372       .  S
C53         C873   1.481       .  S
C54         C860   1.481       .  S
C55         C850   1.478       .  S
C56         C446   1.466       .  S
O57         Cu65   2.009       .  S
O57          C67   1.278   1_655  A
O58         Cu65   2.009   1_455  S
O58          C68   1.278       .  A
O59       Cu1921   2.005       .  S
O59          C69   1.278       .  A
O60         Cu65   2.013   1_455  S
O60          C70   1.279       .  A
O61         Cu66   2.004       .  S
O61         C998   1.278   1_545  A
O62       Cu1922   2.012       .  S
O62         C997   1.279   1_545  A
O63         Cu66   2.008   1_655  S
O63         C996   1.277   1_645  A
O64         Cu66   2.008       .  S
O64         C995   1.277   1_545  A
Cu65       O1915   2.005       .  S
Cu65       Cu994   2.373   1_655  S
Cu66       O1918   2.012   1_455  S
Cu66       Cu993   2.373   1_445  S
C67         O992   1.278       .  A
C67         C923   1.471       .  S
C68         O991   1.277   1_455  A
C68         C347   1.466       .  S
C69         O990   1.279       .  A
C69         C830   1.481       .  S
C70         O989   1.278       .  A
C70         C840   1.481       .  S
O71         Cu79   2.008       .  S
O71          C81   1.277       .  A
O72         Cu79   2.009   1_455  S
O72          C82   1.278       .  A
O73       Cu1935   2.005       .  S
O73          C83   1.278       .  A
O74         Cu79   2.012   1_455  S
O74          C84   1.279       .  A
O75         Cu80   2.005       .  S
O75          C84   1.278       .  A
O76       Cu1936   2.012       .  S
O76          C83   1.279       .  A
O77         Cu80   2.008   1_655  S
O77          C82   1.277   1_655  A
O78         Cu80   2.008       .  S
O78          C81   1.277   1_455  A
Cu79       O1929   2.004       .  S
Cu79        Cu80   2.373   1_655  S
Cu80       O1932   2.012   1_455  S
C81         C893   1.470       .  S
C82         C361   1.466       .  S
C83         C810   1.481       .  S
C84         C820   1.481       .  S
O85         Cu93   2.012       .  S
O85          C95   1.279       .  A
O86         Cu93   2.005       .  S
O86          C96   1.278       .  A
O87         Cu93   2.007       .  S
O87          C97   1.277       .  A
O88         Cu93   2.009       .  S
O88          C98   1.278       .  A
O89         Cu94   2.008       .  S
O89        C1026   1.277   1_545  A
O90         Cu94   2.006       .  S
O90        C1025   1.277   1_545  A
O91         Cu94   2.012       .  S
O91        C1024   1.279   1_545  A
O92         Cu94   2.005       .  S
O92        C1023   1.278   1_545  A
Cu93      Cu1022   2.374       .  S
Cu94      Cu1021   2.374   1_545  S
C95        O1020   1.278       .  A
C95         C833   1.481       .  S
C96        O1019   1.279       .  A
C96         C843   1.481       .  S
C97        O1018   1.277       .  A
C97         C883   1.469       .  S
C98        O1017   1.277       .  A
C98         C378   1.467       .  S
O99        Cu107   2.007       .  S
O99         C109   1.277       .  A
O100       Cu107   2.008       .  S
O100        C110   1.277       .  A
O101       Cu107   2.012       .  S
O101        C111   1.279       .  A
O102       Cu107   2.005       .  S
O102        C112   1.278       .  A
O103       Cu108   2.012       .  S
O103        C112   1.279       .  A
O104       Cu108   2.005       .  S
O104        C111   1.278       .  A
O105       Cu108   2.009       .  S
O105        C110   1.278       .  A
O106       Cu108   2.008       .  S
O106        C109   1.277       .  A
Cu107      Cu108   2.374       .  S
C109        C853   1.464       .  S
C110        C389   1.466       .  S
C111        C813   1.481       .  S
C112        C823   1.481       .  S
O113       Cu121   2.010       .  S
O113       C1979   1.278       .  A
O114       Cu121   2.007   1_565  S
O114       C1980   1.277       .  A
O115       Cu121   2.005       .  S
O115       C1981   1.278       .  A
O116      Cu1049   2.012       .  S
O116       C1982   1.279       .  A
O117      Cu1050   2.005       .  S
O117        C126   1.278   1_455  A
O118       Cu122   2.012   1_545  S
O118        C125   1.279       .  A
O119       Cu122   2.008   1_545  S
O119        C124   1.277   1_445  A
O120       Cu122   2.011       .  S
O120        C123   1.278   1_565  A
Cu121      O1044   2.012   1_545  S
Cu121     Cu1978   2.373   1_545  S
Cu122      O1045   2.005       .  S
Cu122     Cu1977   2.373   1_465  S
C123       O1969   1.278   1_455  A
C123        C800   1.475       .  S
C124       O1970   1.277       .  A
C124        C180   1.466       .  S
C125       O1971   1.278   1_455  A
C125        C793   1.481       .  S
C126       O1972   1.279       .  A
C126        C780   1.481       .  S
O127       Cu135   2.007       .  S
O127       C1993   1.277       .  A
O128       Cu135   2.007       .  S
O128       C1994   1.277       .  A
O129       Cu135   2.012       .  S
O129       C1995   1.279       .  A
O130       Cu135   2.005       .  S
O130       C1996   1.278       .  A
O131       Cu136   2.012       .  S
O131        C140   1.279       .  A
O132       Cu136   2.005       .  S
O132        C139   1.278   1_455  A
O133       Cu136   2.008       .  S
O133        C138   1.277   1_455  A
O134       Cu136   2.007       .  S
O134        C137   1.277       .  A
Cu135     Cu1992   2.373       .  S
Cu136     Cu1991   2.373   1_455  S
C137       O1983   1.277   1_455  A
C137        C193   1.466       .  S
C138       O1984   1.277       .  A
C138        C770   1.470       .  S
C139       O1985   1.279       .  A
C139        C790   1.481       .  S
C140       O1986   1.278   1_455  A
C140        C783   1.481       .  S
O141       Cu149   2.012   1_545  S
O141        C151   1.279       .  A
O142      Cu1077   2.005       .  S
O142        C152   1.278       .  A
O143       Cu149   2.005       .  S
O143        C153   1.277   1_565  A
O144       Cu149   2.007   1_545  S
O144        C154   1.277   1_545  A
O145       Cu150   2.007   1_565  S
O145        C154   1.277       .  A
O146       Cu150   2.006       .  S
O146        C153   1.277       .  A
O147      Cu1078   2.012       .  S
O147        C152   1.279       .  A
O148       Cu150   2.005       .  S
O148        C151   1.278       .  A
Cu149      O1070   2.004       .  S
Cu149      Cu150   2.373   1_565  S
Cu150      O1075   2.012   1_545  S
C151        C750   1.481       .  S
C152        C740   1.481       .  S
C153        C760   1.468       .  S
C154        C207   1.466       .  S
O155       Cu163   2.005       .  S
O155        C165   1.278       .  A
O156       Cu163   2.013       .  S
O156        C166   1.279       .  A
O157       Cu163   2.009       .  S
O157        C167   1.278       .  A
O158       Cu163   2.009       .  S
O158        C168   1.278       .  A
O159       Cu164   2.009       .  S
O159        C168   1.278       .  A
O160       Cu164   2.009       .  S
O160        C167   1.278       .  A
O161       Cu164   2.005       .  S
O161        C166   1.278       .  A
O162       Cu164   2.012       .  S
O162        C165   1.279       .  A
Cu163      Cu164   2.373       .  S
C165        C753   1.481       .  S
C166        C743   1.481       .  S
C167        C221   1.467       .  S
C168        C730   1.471       .  S
O169       Cu177   2.007       .  S
O169       C2035   1.278       .  A
O170       Cu177   2.007       .  S
O170       C2036   1.277       .  A
O171      Cu1105   2.009       .  S
O171       C2037   1.278       .  A
O172       Cu177   2.009   1_545  S
O172       C2038   1.278       .  A
O173       Cu178   2.008   1_545  S
O173        C182   1.278   1_455  A
O174      Cu1106   2.008       .  S
O174        C181   1.278       .  A
O175       Cu178   2.007       .  S
O175        C180   1.277   1_455  A
O176       Cu178   2.006       .  S
O176        C179   1.278       .  A
Cu177      O1099   2.008       .  S
Cu177     Cu2034   2.372       .  S
Cu178      O1102   2.009       .  S
Cu178     Cu2033   2.372   1_455  S
C179       O2025   1.278   1_455  A
C179        C720   1.480   1_565  S
C180       O2026   1.277       .  A
C181       O2027   1.278   1_455  A
C181        C700   1.481       .  S
C182       O2028   1.278       .  A
C182        C710   1.481       .  S
O183       Cu191   2.008       .  S
O183       C2049   1.277       .  A
O184       Cu191   2.009       .  S
O184       C2050   1.278       .  A
O185       Cu191   2.008       .  S
O185       C2051   1.278       .  A
O186       Cu191   2.008       .  S
O186       C2052   1.278       .  A
O187       Cu192   2.009       .  S
O187        C196   1.278       .  A
O188       Cu192   2.008       .  S
O188        C195   1.278       .  A
O189       Cu192   2.009       .  S
O189        C194   1.278       .  A
O190       Cu192   2.008       .  S
O190        C193   1.277       .  A
Cu191     Cu2048   2.372       .  S
Cu192     Cu2047   2.372   1_455  S
C193       O2039   1.277   1_455  A
C194       O2040   1.278   1_455  A
C194        C690   1.482       .  S
C195       O2041   1.278   1_455  A
C195        C703   1.481       .  S
C196       O2042   1.278   1_455  A
C196        C713   1.481       .  S
O197       Cu205   2.008       .  S
O197        C207   1.277       .  A
O198       Cu205   2.010       .  S
O198        C208   1.279       .  A
O199       Cu205   2.008   1_545  S
O199        C209   1.278       .  A
O200      Cu1133   2.008       .  S
O200        C210   1.278       .  A
O201      Cu1134   2.008       .  S
O201        C210   1.278       .  A
O202       Cu206   2.008   1_545  S
O202        C209   1.278       .  A
O203       Cu206   2.010       .  S
O203        C208   1.279       .  A
O204       Cu206   2.009       .  S
O204        C207   1.277       .  A
Cu205      O1128   2.009       .  S
Cu205      Cu206   2.372       .  S
Cu206      O1129   2.009       .  S
C208        C680   1.483   1_565  S
C209        C670   1.481       .  S
C210        C660   1.481       .  S
O211       Cu219   2.008       .  S
O211        C221   1.277       .  A
O212       Cu219   2.008       .  S
O212        C222   1.278       .  A
O213       Cu219   2.009       .  S
O213        C223   1.278       .  A
O214       Cu219   2.008       .  S
O214        C224   1.278       .  A
O215       Cu220   2.009       .  S
O215        C224   1.278       .  A
O216       Cu220   2.008       .  S
O216        C223   1.278       .  A
O217       Cu220   2.008       .  S
O217        C222   1.278       .  A
O218       Cu220   2.009       .  S
O218        C221   1.278       .  A
Cu219      Cu220   2.372       .  S
C222        C650   1.481       .  S
C223        C663   1.481       .  S
C224        C673   1.481       .  S
O225       Cu233   2.007       .  S
O225       C1163   1.278       .  A
O226       Cu233   2.008       .  S
O226       C1164   1.277   1_455  A
O227      Cu2089   2.009       .  S
O227       C1165   1.278       .  A
O228       Cu233   2.008       .  S
O228       C1166   1.278       .  A
O229       Cu234   2.009       .  S
O229        C238   1.278       .  A
O230      Cu2090   2.008       .  S
O230        C237   1.278       .  A
O231       Cu234   2.009       .  S
O231        C236   1.278       .  A
O232       Cu234   2.008   1_655  S
O232        C235   1.278   1_655  A
Cu233      O2083   2.008   1_455  S
Cu233     Cu1162   2.372       .  S
Cu234      O2086   2.008   1_455  S
Cu234     Cu1161   2.372   1_545  S
C235       O1153   1.278   1_545  A
C235        C640   1.480       .  S
C236       O1154   1.277   1_545  A
C236        C293   1.467   1_455  S
C237       O1155   1.278   1_545  A
C237        C620   1.481       .  S
C238       O1156   1.278   1_545  A
C238        C630   1.481       .  S
O239       Cu247   2.009       .  S
O239        C249   1.278       .  A
O240       Cu247   2.007       .  S
O240        C250   1.277   1_455  A
O241      Cu2103   2.009       .  S
O241        C251   1.278       .  A
O242       Cu247   2.008       .  S
O242        C252   1.279       .  A
O243       Cu248   2.008   1_455  S
O243        C252   1.278       .  A
O244      Cu2104   2.008       .  S
O244        C251   1.279       .  A
O245       Cu248   2.007       .  S
O245        C250   1.277       .  A
O246       Cu248   2.008       .  S
O246        C249   1.278   1_655  A
Cu247      O2097   2.009   1_455  S
Cu247      Cu248   2.372   1_455  S
Cu248      O2100   2.008       .  S
C249        C610   1.481       .  S
C250        C307   1.466       .  S
C251        C590   1.481       .  S
C252        C600   1.481       .  S
O253       Cu261   2.009       .  S
O253       C1191   1.278       .  A
O254       Cu261   2.007       .  S
O254       C1192   1.277       .  A
O255       Cu261   2.009       .  S
O255       C1193   1.278       .  A
O256       Cu261   2.008       .  S
O256       C1194   1.278       .  A
O257       Cu262   2.008       .  S
O257        C266   1.278       .  A
O258       Cu262   2.008       .  S
O258        C265   1.278       .  A
O259       Cu262   2.009       .  S
O259        C264   1.277       .  A
O260       Cu262   2.010       .  S
O260        C263   1.279       .  A
Cu261     Cu1190   2.372       .  S
Cu262     Cu1189   2.372   1_545  S
C263       O1181   1.278   1_545  A
C263        C580   1.482       .  S
C264       O1182   1.277   1_545  A
C264        C319   1.466       .  S
C265       O1183   1.278   1_545  A
C265        C633   1.481       .  S
C266       O1184   1.278   1_545  A
C266        C623   1.481       .  S
O267       Cu275   2.009       .  S
O267        C277   1.278       .  A
O268       Cu275   2.009       .  S
O268        C278   1.278       .  A
O269       Cu275   2.012       .  S
O269        C279   1.279       .  A
O270       Cu275   2.005       .  S
O270        C280   1.278       .  A
O271       Cu276   2.011       .  S
O271        C280   1.279       .  A
O272       Cu276   2.005       .  S
O272        C279   1.278       .  A
O273       Cu276   2.009       .  S
O273        C278   1.278       .  A
O274       Cu276   2.010       .  S
O274        C277   1.278       .  A
Cu275      Cu276   2.372       .  S
C277        C336   1.467       .  S
C278        C570   1.477       .  S
C279        C593   1.481       .  S
C280        C603   1.481       .  S
O281      Cu2145   2.004       .  S
O281        C291   1.278       .  A
O282       Cu289   2.012   1_455  S
O282        C292   1.279       .  A
O283       Cu289   2.010   1_455  S
O283        C293   1.278   1_455  A
O284       Cu289   2.010       .  S
O284        C294   1.277       .  A
O285       Cu290   2.010       .  S
O285       C1222   1.278   1_455  A
O286       Cu290   2.009   1_655  S
O286       C1221   1.278       .  A
O287       Cu290   2.004       .  S
O287       C1220   1.278       .  A
O288      Cu2146   2.013       .  S
O288       C1219   1.279       .  A
Cu289      O2137   2.004       .  S
Cu289     Cu1218   2.373   1_645  S
Cu290      O2144   2.012   1_455  S
Cu290     Cu1217   2.373   1_455  S
C291       O1216   1.279   1_545  A
C291        C550   1.481       .  S
C292       O1215   1.278   1_545  A
C292        C560   1.481       .  S
C293       O1214   1.278   1_545  A
C294       O1213   1.278   1_645  A
C294        C803   1.470       .  S
O295      Cu2159   2.004       .  S
O295        C305   1.278       .  A
O296       Cu303   2.012   1_455  S
O296        C306   1.279       .  A
O297       Cu303   2.008   1_455  S
O297        C307   1.277   1_455  A
O298       Cu303   2.007       .  S
O298        C308   1.277       .  A
O299       Cu304   2.006       .  S
O299        C308   1.277   1_455  A
O300       Cu304   2.007   1_655  S
O300        C307   1.277       .  A
O301       Cu304   2.004       .  S
O301        C306   1.278       .  A
O302      Cu2160   2.013       .  S
O302        C305   1.279       .  A
Cu303      O2151   2.004       .  S
Cu303      Cu304   2.373   1_655  S
Cu304      O2158   2.012   1_455  S
C305        C530   1.481       .  S
C306        C540   1.481       .  S
C308        C773   1.469       .  S
O309       Cu317   2.007       .  S
O309        C319   1.277       .  A
O310       Cu317   2.005       .  S
O310        C320   1.277       .  A
O311       Cu317   2.012       .  S
O311        C321   1.279       .  A
O312       Cu317   2.005       .  S
O312        C322   1.278       .  A
O313       Cu318   2.012       .  S
O313       C1250   1.279       .  A
O314       Cu318   2.004       .  S
O314       C1249   1.278       .  A
O315       Cu318   2.005       .  S
O315       C1248   1.277       .  A
O316       Cu318   2.007       .  S
O316       C1247   1.277       .  A
Cu317     Cu1246   2.373   1_545  S
Cu318     Cu1245   2.373       .  S
C319       O1244   1.277   1_545  A
C320       O1243   1.277   1_545  A
C320        C763   1.468       .  S
C321       O1242   1.278   1_545  A
C321        C553   1.481       .  S
C322       O1241   1.279   1_545  A
C322        C563   1.481       .  S
O323       Cu331   2.012       .  S
O323        C333   1.279       .  A
O324       Cu331   2.004       .  S
O324        C334   1.278       .  A
O325       Cu331   2.009       .  S
O325        C335   1.278       .  A
O326       Cu331   2.010       .  S
O326        C336   1.278       .  A
O327       Cu332   2.010       .  S
O327        C336   1.278       .  A
O328       Cu332   2.010       .  S
O328        C335   1.278       .  A
O329       Cu332   2.012       .  S
O329        C334   1.279       .  A
O330       Cu332   2.005       .  S
O330        C333   1.278       .  A
Cu331      Cu332   2.373       .  S
C333        C543   1.481       .  S
C334        C533   1.481       .  S
C335        C733   1.471       .  S
O337       Cu345   2.008       .  S
O337        C347   1.277       .  A
O338       Cu345   2.007       .  S
O338        C348   1.278       .  A
O339      Cu2201   2.009       .  S
O339        C349   1.278       .  A
O340       Cu345   2.008       .  S
O340        C350   1.278       .  A
O341       Cu346   2.008   1_455  S
O341       C1278   1.278   1_545  A
O342      Cu2202   2.008       .  S
O342       C1277   1.278   1_545  A
O343       Cu346   2.007       .  S
O343       C1276   1.278   1_645  A
O344       Cu346   2.007   1_455  S
O344       C1275   1.277   1_545  A
Cu345      O2195   2.009   1_455  S
Cu345     Cu1274   2.372   1_455  S
Cu346      O2198   2.007       .  S
Cu346     Cu1273   2.372   1_645  S
C347       O1272   1.277   1_455  A
C348       O1271   1.278   1_455  A
C348       C1571   1.480       .  S
C349       O1270   1.278       .  A
C349        C510   1.481       .  S
C350       O1269   1.278       .  A
C350        C523   1.481       .  S
O351       Cu359   2.008       .  S
O351        C361   1.277       .  A
O352       Cu359   2.008       .  S
O352        C362   1.278       .  A
O353      Cu2215   2.008       .  S
O353        C363   1.278       .  A
O354       Cu359   2.008       .  S
O354        C364   1.278       .  A
O355       Cu360   2.008       .  S
O355        C364   1.278       .  A
O356      Cu2216   2.008       .  S
O356        C363   1.278       .  A
O357       Cu360   2.009       .  S
O357        C362   1.278       .  A
O358       Cu360   2.008   1_655  S
O358        C361   1.277   1_655  A
Cu359      O2209   2.009   1_455  S
Cu359      Cu360   2.372       .  S
Cu360      O2212   2.009   1_455  S
C362        C613   1.481       .  S
C363        C490   1.481       .  S
C364        C500   1.481       .  S
O365       Cu373   2.009       .  S
O365        C375   1.278       .  A
O366       Cu373   2.008       .  S
O366        C376   1.278       .  A
O367       Cu373   2.010       .  S
O367        C377   1.278       .  A
O368       Cu373   2.009       .  S
O368        C378   1.277       .  A
O369       Cu374   2.008       .  S
O369       C1306   1.277   1_545  A
O370       Cu374   2.010       .  S
O370       C1305   1.278   1_545  A
O371       Cu374   2.009       .  S
O371       C1304   1.278   1_545  A
O372       Cu374   2.008       .  S
O372       C1303   1.278   1_545  A
Cu373     Cu1302   2.372       .  S
Cu374     Cu1301   2.372   1_545  S
C375       O1300   1.278       .  A
C375        C520   1.481       .  S
C376       O1299   1.278       .  A
C376        C513   1.481       .  S
C377       O1298   1.279       .  A
C377       C1511   1.482       .  S
C378       O1297   1.277       .  A
O379       Cu387   2.008       .  S
O379        C389   1.277       .  A
O380       Cu387   2.009       .  S
O380        C390   1.278       .  A
O381       Cu387   2.005       .  S
O381        C391   1.278       .  A
O382       Cu387   2.011       .  S
O382        C392   1.279       .  A
O383       Cu388   2.005       .  S
O383        C392   1.278       .  A
O384       Cu388   2.011       .  S
O384        C391   1.279       .  A
O385       Cu388   2.008       .  S
O385        C390   1.278       .  A
O386       Cu388   2.008       .  S
O386        C389   1.277       .  A
Cu387      Cu388   2.373       .  S
C390        C573   1.476       .  S
C391        C493   1.481       .  S
C392        C503   1.481       .  S
O393      Cu1329   2.009       .  S
O393        C403   1.278       .  A
O394       Cu401   2.008       .  S
O394        C404   1.278       .  A
O395       Cu401   2.006       .  S
O395        C405   1.277       .  A
O396       Cu401   2.007       .  S
O396        C406   1.278       .  A
O397      Cu1330   2.006       .  S
O397       C2262   1.278       .  A
O398      Cu1330   2.006       .  S
O398       C2261   1.277       .  A
O399      Cu1330   2.008       .  S
O399       C2260   1.278       .  A
O400       Cu402   2.008       .  S
O400       C2259   1.278       .  A
Cu401      O1321   2.008   1_545  S
Cu401     Cu3186   2.372   1_455  S
Cu402      O1325   2.006       .  S
Cu402      O1326   2.006       .  S
Cu402      O1327   2.008       .  S
Cu402     Cu3185   2.372       .  S
C403       O2256   1.278   1_455  A
C403        C473   1.481       .  S
C404       O2255   1.278   1_455  A
C404        C480   1.481       .  S
C405       O2254   1.277   1_455  A
C406       O2253   1.278   1_455  A
C406        C723   1.480       .  S
O407       Cu415   2.008       .  S
O407       C2273   1.277       .  A
O408       Cu415   2.009       .  S
O408       C2274   1.278       .  A
O409       Cu415   2.009       .  S
O409       C2275   1.278       .  A
O410       Cu415   2.009       .  S
O410       C2276   1.278       .  A
O411       Cu416   2.008       .  S
O411        C420   1.278       .  A
O412       Cu416   2.008       .  S
O412        C419   1.278       .  A
O413       Cu416   2.010       .  S
O413        C418   1.279       .  A
O414       Cu416   2.008       .  S
O414        C417   1.277   1_455  A
Cu415     Cu2272   2.372       .  S
Cu416     Cu2271   2.372   1_455  S
C417       O2263   1.277       .  A
C417       C1882   1.466       .  S
C418       O2264   1.278   1_455  A
C418        C693   1.482       .  S
C419       O2265   1.278   1_455  A
C419        C483   1.481       .  S
C420       O2266   1.278   1_455  A
C420        C470   1.481       .  S
O421       Cu429   2.010       .  S
O421        C431   1.278       .  A
O422       Cu429   2.011       .  S
O422       C1360   1.279       .  A
O423       Cu429   2.009       .  S
O423        C433   1.278       .  A
O424      Cu1357   2.008       .  S
O424        C434   1.278       .  A
O425       Cu430   2.008       .  S
O425        C434   1.278       .  A
O426      Cu1358   2.008       .  S
O426        C433   1.278       .  A
O427       Cu430   2.011       .  S
O427        C432   1.279       .  A
O428       Cu430   2.009       .  S
O428       C1359   1.278       .  A
Cu429      O1352   2.009       .  S
Cu429     Cu1358   2.372       .  S
Cu430      O1354   2.008   1_545  S
Cu430     Cu1357   2.372       .  S
C431       O1356   1.277       .  A
C431        C967   1.467       .  S
C432       O1350   1.279       .  A
C432        C683   1.483       .  S
C433        C450   1.481       .  S
C434        C460   1.481       .  S
O435       Cu443   2.007       .  S
O435        C445   1.278       .  A
O436       Cu443   2.008       .  S
O436        C446   1.277       .  A
O437       Cu443   2.008       .  S
O437        C447   1.278       .  A
O438       Cu443   2.008       .  S
O438        C448   1.278       .  A
O439       Cu444   2.008       .  S
O439        C448   1.278       .  A
O440       Cu444   2.009       .  S
O440        C447   1.278       .  A
O441       Cu444   2.008       .  S
O441        C446   1.277       .  A
O442       Cu444   2.008       .  S
O442        C445   1.278       .  A
Cu443      Cu444   2.372       .  S
C445        C653   1.481       .  S
C447        C453   1.481       .  S
C448        C463   1.481       .  S
C449        C450   1.406       .  A
C449        C454   1.398       .  A
C449        H455   1.083       .  S
C450        C451   1.405       .  A
C451        C452   1.397       .  A
C451        H456   1.083       .  S
C452        C453   1.406       .  A
C452        H457   1.083       .  S
C453        C454   1.406       .  A
C454        H458   1.083       .  S
C459        C460   1.405       .  A
C459        C464   1.397       .  A
C459        H465   1.083       .  S
C460        C461   1.406       .  A
C461        C462   1.398       .  A
C461        H466   1.083       .  S
C462        C463   1.406       .  A
C462        H467   1.083       .  S
C463        C464   1.405       .  A
C464        H468   1.083       .  S
C469        C470   1.406       .  A
C469        C474   1.398       .  A
C469        H475   1.083       .  S
C470       C2327   1.406   1_455  A
C471        C472   1.398       .  A
C471       C2326   1.406       .  A
C471        H476   1.083       .  S
C472       C2329   1.406       .  A
C472        H477   1.083       .  S
C473        C474   1.406       .  A
C473       C2328   1.406   1_455  A
C474        H478   1.083       .  S
C479        C484   1.398       .  A
C479       C2336   1.406       .  A
C479        H485   1.083       .  S
C480        C481   1.406       .  A
C480       C2335   1.406   1_455  A
C481        C482   1.398       .  A
C481        H486   1.083       .  S
C482        C483   1.406       .  A
C482        H487   1.083       .  S
C483       C2340   1.405   1_455  A
C484       C2339   1.405       .  A
C484        H488   1.083       .  S
C489        C490   1.405       .  A
C489        C494   1.397       .  A
C489        H495   1.083       .  S
C490        C491   1.406       .  A
C491        C492   1.398       .  A
C491        H496   1.083       .  S
C492        C493   1.406       .  A
C492        H497   1.083       .  S
C493        C494   1.406       .  A
C494        H498   1.083       .  S
C499        C500   1.405       .  A
C499        C504   1.397       .  A
C499        H505   1.083       .  S
C500        C501   1.406       .  A
C501        C502   1.398       .  A
C501        H506   1.083       .  S
C502        C503   1.405       .  A
C502        H507   1.083       .  S
C503        C504   1.406       .  A
C504        H508   1.083       .  S
C509        C510   1.406       .  A
C509        C514   1.398       .  A
C509        H515   1.083       .  S
C510       C1439   1.406       .  A
C511        C512   1.398       .  A
C511       C1438   1.406   1_545  A
C511        H516   1.083       .  S
C512       C1441   1.405   1_545  A
C512        H517   1.083       .  S
C513        C514   1.406       .  A
C513       C1440   1.405       .  A
C514        H518   1.083       .  S
C519        C520   1.405       .  A
C519        C524   1.398       .  A
C519        H525   1.083       .  S
C520       C1449   1.406       .  A
C521        C522   1.398       .  A
C521       C1448   1.406   1_545  A
C521        H526   1.083       .  S
C522       C1451   1.406   1_545  A
C522        H527   1.083       .  S
C523        C524   1.406       .  A
C523       C1450   1.406       .  A
C524        H528   1.083       .  S
C529        C530   1.405       .  A
C529        C534   1.398       .  A
C529        H535   1.083       .  S
C530        C531   1.406       .  A
C531        C532   1.397       .  A
C531        H536   1.083       .  S
C532        C533   1.405       .  A
C532        H537   1.083       .  S
C533        C534   1.406       .  A
C534        H538   1.083       .  S
C539        C540   1.405       .  A
C539        C544   1.398       .  A
C539        H545   1.083       .  S
C540        C541   1.406       .  A
C541        C542   1.397       .  A
C541        H546   1.083       .  S
C542        C543   1.405       .  A
C542        H547   1.083       .  S
C543        C544   1.406       .  A
C544        H548   1.083       .  S
C549        C554   1.398       .  A
C549       C1478   1.405       .  A
C549        H555   1.083       .  S
C550        C551   1.406       .  A
C550       C1477   1.405   1_545  A
C551        C552   1.398       .  A
C551        H556   1.083       .  S
C552        C553   1.405       .  A
C552        H557   1.083       .  S
C553       C1482   1.406   1_545  A
C554       C1481   1.406       .  A
C554        H558   1.083       .  S
C559        C564   1.398       .  A
C559       C1488   1.406       .  A
C559        H565   1.083       .  S
C560        C561   1.405       .  A
C560       C1487   1.406   1_545  A
C561        C562   1.398       .  A
C561        H566   1.083       .  S
C562        C563   1.406       .  A
C562        H567   1.083       .  S
C563       C1492   1.405   1_545  A
C564       C1491   1.405       .  A
C564        H568   1.083       .  S
C569        C570   1.405       .  A
C569        C574   1.398       .  A
C569        H575   1.083       .  S
C570        C571   1.405       .  A
C571        C572   1.398       .  A
C571        H576   1.083       .  S
C572        C573   1.404   1_554  A
C572        H577   1.083   1_554  S
C573        C574   1.404   1_556  A
C574        H578   1.083   1_554  S
C579        C584   1.398       .  A
C579       C1508   1.406       .  A
C579        H585   1.083       .  S
C580        C581   1.406       .  A
C580       C1507   1.406   1_545  A
C581        C582   1.398       .  A
C581        H586   1.083       .  S
C582        C583   1.406   1_544  A
C582        H587   1.083   1_554  S
C583       C1305   1.482       .  S
C583       C1512   1.406   1_556  A
C584       C1511   1.406   1_554  A
C584        H588   1.083   1_554  S
C589        C590   1.406       .  A
C589        C594   1.399       .  A
C589        H595   1.083       .  S
C590        C591   1.405       .  A
C591        C592   1.397       .  A
C591        H596   1.083       .  S
C592        C593   1.405       .  A
C592        H597   1.083       .  S
C593        C594   1.406       .  A
C594        H598   1.083       .  S
C599        C600   1.405       .  A
C599        C604   1.397       .  A
C599        H605   1.083       .  S
C600        C601   1.406       .  A
C601        C602   1.399       .  A
C601        H606   1.083       .  S
C602        C603   1.406       .  A
C602        H607   1.083       .  S
C603        C604   1.405       .  A
C604        H608   1.083       .  S
C609        C610   1.406   1_655  A
C609        C614   1.398       .  A
C609        H615   1.083       .  S
C610       C2467   1.406       .  A
C611        C612   1.398       .  A
C611       C2466   1.406       .  A
C611        H616   1.083       .  S
C612       C2469   1.406   1_554  A
C612        H617   1.083   1_554  S
C613        C614   1.406   1_456  A
C613       C2468   1.406   1_556  A
C614        H618   1.083   1_554  S
C619        C620   1.406       .  A
C619        C624   1.398       .  A
C619        H625   1.083       .  S
C620       C1549   1.405   1_545  A
C621        C622   1.398       .  A
C621       C1548   1.405       .  A
C621        H626   1.083       .  S
C622       C1551   1.406       .  A
C622        H627   1.083       .  S
C623        C624   1.406       .  A
C623       C1550   1.406   1_545  A
C624        H628   1.083       .  S
C629        C630   1.406       .  A
C629        C634   1.398       .  A
C629        H635   1.083       .  S
C630       C1559   1.406   1_545  A
C631        C632   1.398       .  A
C631       C1558   1.406       .  A
C631        H636   1.083       .  S
C632       C1561   1.406       .  A
C632        H637   1.083       .  S
C633        C634   1.406       .  A
C633       C1560   1.406   1_545  A
C634        H638   1.083       .  S
C639        C640   1.405   1_655  A
C639        C644   1.398       .  A
C639        H645   1.083       .  S
C640       C3425   1.405   1_545  A
C641        C642   1.397       .  A
C641       C3424   1.405       .  A
C641        H646   1.083       .  S
C642       C3427   1.405   1_554  A
C642        H647   1.083   1_554  S
C643       C1276   1.480   1_645  S
C643        C644   1.406   1_556  A
C643       C3426   1.405   1_646  A
C644        H648   1.083   1_554  S
C649        C650   1.406       .  A
C649        C654   1.398       .  A
C649        H655   1.083       .  S
C650        C651   1.406       .  A
C651        C652   1.398       .  A
C651        H656   1.083       .  S
C652        C653   1.406       .  A
C652        H657   1.083       .  S
C653        C654   1.405       .  A
C654        H658   1.083       .  S
C659        C660   1.406       .  A
C659        C664   1.398       .  A
C659        H665   1.083       .  S
C660        C661   1.406       .  A
C661        C662   1.398       .  A
C661        H666   1.083       .  S
C662        C663   1.405       .  A
C662        H667   1.083       .  S
C663        C664   1.406       .  A
C664        H668   1.083       .  S
C669        C670   1.406       .  A
C669        C674   1.398       .  A
C669        H675   1.083       .  S
C670        C671   1.406       .  A
C671        C672   1.398       .  A
C671        H676   1.083       .  S
C672        C673   1.405       .  A
C672        H677   1.083       .  S
C673        C674   1.406       .  A
C674        H678   1.083       .  S
C679        C684   1.398       .  A
C679       C1608   1.406       .  A
C679        H685   1.083       .  S
C680        C681   1.406   1_545  A
C680       C1607   1.406       .  A
C681        C682   1.398   1_565  A
C681        H686   1.083       .  S
C682        C683   1.406       .  A
C682        H687   1.083   1_545  S
C683       C1612   1.406       .  A
C684       C1611   1.406       .  A
C684        H688   1.083       .  S
C689        C690   1.406       .  A
C689        C694   1.398       .  A
C689        H695   1.083       .  S
C690       C2547   1.406   1_455  A
C691        C692   1.398       .  A
C691       C2546   1.406       .  A
C691        H696   1.083       .  S
C692       C2549   1.406       .  A
C692        H697   1.083       .  S
C693        C694   1.406       .  A
C693       C2548   1.406   1_455  A
C694        H698   1.083       .  S
C699        C704   1.398       .  A
C699       C2556   1.406       .  A
C699        H705   1.083       .  S
C700        C701   1.406       .  A
C700       C2555   1.406   1_455  A
C701        C702   1.398       .  A
C701        H706   1.083       .  S
C702        C703   1.406       .  A
C702        H707   1.083       .  S
C703       C2560   1.406   1_455  A
C704       C2559   1.406       .  A
C704        H708   1.083       .  S
C709        C714   1.398       .  A
C709       C2566   1.406       .  A
C709        H715   1.083       .  S
C710        C711   1.406   1_655  A
C710       C2565   1.406       .  A
C711        C712   1.398       .  A
C711        H716   1.083       .  S
C712        C713   1.406       .  A
C712        H717   1.083       .  S
C713       C2570   1.406   1_455  A
C714       C2569   1.406       .  A
C714        H718   1.083       .  S
C719        C724   1.397       .  A
C719       C2576   1.405   1_565  A
C719        H725   1.083       .  S
C720       C2575   1.405   1_445  A
C720       C1649   1.405       .  A
C721        C722   1.397       .  A
C721       C1648   1.405       .  A
C721        H726   1.083       .  S
C722       C1651   1.405       .  A
C722        H727   1.083       .  S
C723       C1650   1.405       .  A
C723       C2580   1.405   1_445  A
C724       C2579   1.405   1_565  A
C724        H728   1.083       .  S
C729        C730   1.403       .  A
C729        C734   1.399       .  A
C729        H735   1.083       .  S
C730        C731   1.403       .  A
C731        C732   1.399       .  A
C731        H736   1.083       .  S
C732        C733   1.403       .  A
C732        H737   1.084       .  S
C733        C734   1.403       .  A
C734        H738   1.084       .  S
C739        C740   1.405       .  A
C739        C744   1.398       .  A
C739        H745   1.083       .  S
C740        C741   1.406       .  A
C741        C742   1.398       .  A
C741        H746   1.083       .  S
C742        C743   1.405       .  A
C742        H747   1.083       .  S
C743        C744   1.406       .  A
C744        H748   1.083       .  S
C749        C750   1.405       .  A
C749        C754   1.398       .  A
C749        H755   1.083       .  S
C750        C751   1.406       .  A
C751        C752   1.398       .  A
C751        H756   1.083       .  S
C752        C753   1.405       .  A
C752        H757   1.083       .  S
C753        C754   1.406       .  A
C754        H758   1.083       .  S
C759        C764   1.397       .  A
C759       C1688   1.403       .  A
C759        H765   1.083       .  S
C760        C761   1.403       .  A
C760       C1687   1.403   1_545  A
C761        C762   1.397       .  A
C761        H766   1.083       .  S
C762        C763   1.403       .  A
C762        H767   1.084       .  S
C763       C1692   1.403   1_545  A
C764       C1691   1.403       .  A
C764        H768   1.084       .  S
C769        C770   1.403   1_455  A
C769        C774   1.398       .  A
C769        H775   1.084       .  S
C770       C2627   1.403       .  A
C771        C772   1.398       .  A
C771       C2626   1.403       .  A
C771        H776   1.084       .  S
C772       C2629   1.403       .  A
C772        H777   1.083       .  S
C773        C774   1.403   1_655  A
C773       C2628   1.403       .  A
C774        H778   1.083       .  S
C779        C784   1.398       .  A
C779       C2636   1.405       .  A
C779        H785   1.083       .  S
C780        C781   1.406   1_655  A
C780       C2635   1.405       .  A
C781        C782   1.398       .  A
C781        H786   1.083       .  S
C782        C783   1.405       .  A
C782        H787   1.083       .  S
C783       C2640   1.406   1_455  A
C784       C2639   1.406       .  A
C784        H788   1.083       .  S
C789        C790   1.406   1_455  A
C789        C794   1.398       .  A
C789        H795   1.083       .  S
C790       C2647   1.405       .  A
C791        C792   1.398       .  A
C791       C2646   1.405       .  A
C791        H796   1.083       .  S
C792       C2649   1.406       .  A
C792        H797   1.083       .  S
C793        C794   1.405       .  A
C793       C2648   1.406   1_455  A
C794        H798   1.083       .  S
C799        C804   1.399       .  A
C799       C2656   1.405       .  A
C799        H805   1.083       .  S
C800       C2655   1.405   1_455  A
C800       C1729   1.405   1_545  A
C801        C802   1.399       .  A
C801       C1728   1.405       .  A
C801        H806   1.083       .  S
C802       C1731   1.403   1_455  A
C802        H807   1.084       .  S
C803       C1730   1.403   1_645  A
C803       C2660   1.403       .  A
C804       C2659   1.403       .  A
C804        H808   1.084       .  S
C809        C810   1.406       .  A
C809        C814   1.397       .  A
C809        H815   1.083       .  S
C810        C811   1.406       .  A
C811        C812   1.398       .  A
C811        H816   1.083       .  S
C812        C813   1.406       .  A
C812        H817   1.083       .  S
C813        C814   1.406       .  A
C814        H818   1.083       .  S
C819        C820   1.405       .  A
C819        C824   1.397       .  A
C819        H825   1.083       .  S
C820        C821   1.406       .  A
C821        C822   1.398       .  A
C821        H826   1.083       .  S
C822        C823   1.406       .  A
C822        H827   1.083       .  S
C823        C824   1.406       .  A
C824        H828   1.083       .  S
C829        C834   1.398       .  A
C829       C1758   1.405   1_545  A
C829        H835   1.083       .  S
C830        C831   1.406       .  A
C830       C1757   1.405       .  A
C831        C832   1.398       .  A
C831        H836   1.083       .  S
C832        C833   1.405       .  A
C832        H837   1.083       .  S
C833       C1762   1.406       .  A
C834       C1761   1.406   1_545  A
C834        H838   1.083       .  S
C839        C844   1.398       .  A
C839       C1768   1.406   1_545  A
C839        H845   1.083       .  S
C840        C841   1.405       .  A
C840       C1767   1.406       .  A
C841        C842   1.398       .  A
C841        H846   1.083       .  S
C842        C843   1.406       .  A
C842        H847   1.083       .  S
C843       C1772   1.405       .  A
C844       C1771   1.405   1_545  A
C844        H848   1.083       .  S
C849        C850   1.406       .  A
C849        C854   1.398       .  A
C849        H855   1.083       .  S
C850        C851   1.406       .  A
C851        C852   1.398       .  A
C851        H856   1.083       .  S
C852        C853   1.401       .  A
C852        H857   1.083       .  S
C853        C854   1.401       .  A
C854        H858   1.083       .  S
C859        C860   1.406       .  A
C859        C864   1.397       .  A
C859        H865   1.083       .  S
C860        C861   1.406       .  A
C861        C862   1.398       .  A
C861        H866   1.083       .  S
C862        C863   1.406       .  A
C862        H867   1.083       .  S
C863        C864   1.406       .  A
C864        H868   1.083       .  S
C869        C870   1.406       .  A
C869        C874   1.398       .  A
C869        H875   1.083       .  S
C870        C871   1.406       .  A
C871        C872   1.397       .  A
C871        H876   1.083       .  S
C872        C873   1.405       .  A
C872        H877   1.083       .  S
C873        C874   1.406       .  A
C874        H878   1.083       .  S
C879        C880   1.403       .  A
C879        C884   1.398       .  A
C879        H885   1.083       .  S
C880       C1809   1.403       .  A
C881        C882   1.398       .  A
C881       C1808   1.403   1_545  A
C881        H886   1.083       .  S
C882       C1811   1.403   1_545  A
C882        H887   1.083       .  S
C883        C884   1.403       .  A
C883       C1810   1.403       .  A
C884        H888   1.083       .  S
C889        C890   1.403       .  A
C889        C894   1.398       .  A
C889        H895   1.084       .  S
C890       C2747   1.403       .  A
C891        C892   1.398       .  A
C891       C2746   1.403   1_455  A
C891        H896   1.084       .  S
C892        C893   1.403   1_455  A
C892        H897   1.083       .  S
C893       C2750   1.403       .  A
C894       C2749   1.403       .  A
C894        H898   1.083       .  S
C899        C904   1.398       .  A
C899       C2756   1.405   1_455  A
C899        H905   1.083       .  S
C900       C1869   1.481       .  S
C900        C901   1.406       .  A
C900       C2755   1.405       .  A
C901        C902   1.398       .  A
C901        H906   1.083       .  S
C902        C903   1.405       .  A
C902        H907   1.083       .  S
C903       C2760   1.406       .  A
C904       C2759   1.406   1_455  A
C904        H908   1.083       .  S
C909        C910   1.405       .  A
C909        C914   1.398       .  A
C909        H915   1.083       .  S
C910       C1870   1.481       .  S
C910       C2767   1.406       .  A
C911        C912   1.398       .  A
C911       C2766   1.406   1_455  A
C911        H916   1.083       .  S
C912       C2769   1.405   1_455  A
C912        H917   1.083       .  S
C913        C914   1.406       .  A
C913       C2768   1.405       .  A
C914        H918   1.083       .  S
C919        C924   1.398       .  A
C919       C2776   1.403       .  A
C919        H925   1.083       .  S
C920       C1867   1.471   1_455  S
C920       C2775   1.403   1_455  A
C920       C1849   1.403       .  A
C921        C922   1.398       .  A
C921       C1848   1.403   1_445  A
C921        H926   1.083       .  S
C922       C1851   1.403   1_545  A
C922        H927   1.083       .  S
C923       C1850   1.403       .  A
C923       C2780   1.403   1_455  A
C924       C2779   1.403       .  A
C924        H928   1.083       .  S
O929       Cu937   2.010       .  S
O929        C939   1.278       .  A
O930       C2796   1.277       .  A
O931       Cu937   2.004       .  S
O931       C2797   1.278       .  A
O932       C2798   1.279       .  A
O933       Cu938   2.005       .  S
O933        C942   1.278   1_455  A
O934        C941   1.279   1_455  A
O935       Cu938   2.006       .  S
O935        C940   1.277       .  A
O936       C2795   1.277   1_445  A
Cu937     Cu1866   2.373   1_565  S
Cu938     Cu1865   2.373   1_455  S
C939       O2792   1.278   1_565  A
C939       C3704   1.472       .  S
C940       O2786   1.277   1_455  A
C940       C1333   1.465       .  S
C941       O2787   1.278       .  A
C941       C3684   1.481       .  S
C942       O2788   1.279       .  A
C942       C3694   1.481       .  S
O943       Cu951   2.009       .  S
O943        C953   1.278       .  A
O944       Cu951   2.008       .  S
O944        C954   1.277       .  A
O945       Cu951   2.006       .  S
O945        C955   1.278       .  A
O946       Cu951   2.013       .  S
O946        C956   1.279       .  A
O947       Cu952   2.004       .  S
O947       C2812   1.278   1_455  A
O948       Cu952   2.012       .  S
O948       C2811   1.279   1_455  A
O949       Cu952   2.007       .  S
O949       C2810   1.277   1_455  A
O950       Cu952   2.008       .  S
O950       C2809   1.277   1_455  A
Cu951     Cu2808   2.373       .  S
Cu952     Cu2807   2.373   1_455  S
C953       O2806   1.277       .  A
C953       C1818   1.471       .  S
C954       O2805   1.277       .  A
C954       C3201   1.466       .  S
C955       O2804   1.279       .  A
C955       C1841   1.481       .  S
C956       O2803   1.278       .  A
C956       C1831   1.481       .  S
O957       Cu965   2.009       .  S
O957        C967   1.277       .  A
O958        C968   1.277       .  A
O959       Cu965   2.012       .  S
O959        C969   1.279       .  A
O960        C970   1.278       .  A
O961       Cu966   2.012   1_565  S
O961        C970   1.279       .  A
O962        C969   1.278       .  A
O963       Cu966   2.006       .  S
O963        C968   1.277   1_545  A
O964       Cu966   2.008   1_565  S
C968       C1808   1.469       .  S
C969       C1798   1.481       .  S
C970       C1791   1.481       .  S
O971       Cu979   2.005       .  S
O971        C981   1.278       .  A
O972       Cu979   2.012       .  S
O972        C982   1.279       .  A
O973       Cu979   2.009       .  S
O973        C983   1.278       .  A
O974       Cu979   2.009       .  S
O974        C984   1.278       .  A
O975       Cu980   2.009       .  S
O975        C984   1.277       .  A
O976       Cu980   2.009       .  S
O976        C983   1.278       .  A
O977       Cu980   2.004       .  S
O977        C982   1.278       .  A
O978       Cu980   2.012       .  S
O978        C981   1.279       .  A
Cu979      Cu980   2.373       .  S
C981       C1801   1.481       .  S
C982       C1788   1.481       .  S
C983       C1778   1.471       .  S
C984       C1374   1.467       .  S
O985       Cu993   2.009       .  S
O985        C995   1.278   1_655  A
O986       Cu993   2.009   1_455  S
O986        C996   1.277       .  A
O987      Cu2849   2.005       .  S
O987        C997   1.278       .  A
O988       Cu993   2.013   1_455  S
O988        C998   1.279       .  A
O989       Cu994   2.004       .  S
O990      Cu2850   2.012       .  S
O991       Cu994   2.008   1_655  S
O992       Cu994   2.009       .  S
Cu993      O2843   2.005       .  S
Cu994      O2846   2.012   1_455  S
C995       C1851   1.471       .  S
C996       C1275   1.466       .  S
C997       C1758   1.481       .  S
C998       C1768   1.481       .  S
O999      Cu1007   2.008       .  S
O999       C1009   1.277   1_655  A
O1000     Cu1007   2.009   1_455  S
O1000      C1010   1.278   1_455  A
O1001     Cu2863   2.004       .  S
O1001      C1011   1.278       .  A
O1002     Cu1007   2.012   1_455  S
O1002      C1012   1.279       .  A
O1003     Cu1008   2.004       .  S
O1003      C1012   1.278       .  A
O1004     Cu2864   2.012       .  S
O1004      C1011   1.279       .  A
O1005     Cu1008   2.007   1_655  S
O1005      C1010   1.277       .  A
O1006     Cu1008   2.007       .  S
O1006      C1009   1.277       .  A
Cu1007     O2857   2.005       .  S
Cu1007    Cu1008   2.373   1_655  S
Cu1008     O2860   2.012   1_455  S
C1009      C1821   1.470       .  S
C1010      C1289   1.466       .  S
C1011      C1738   1.481       .  S
C1012      C1748   1.481       .  S
O1013     Cu1021   2.012       .  S
O1013      C1023   1.279       .  A
O1014     Cu1021   2.005       .  S
O1014      C1024   1.278       .  A
O1015     Cu1021   2.006       .  S
O1015      C1025   1.277       .  A
O1016     Cu1021   2.009       .  S
O1016      C1026   1.277       .  A
O1017     Cu1022   2.008       .  S
O1018     Cu1022   2.006       .  S
O1019     Cu1022   2.012       .  S
O1020     Cu1022   2.005       .  S
C1023      C1761   1.481       .  S
C1024      C1771   1.481       .  S
C1025      C1811   1.469       .  S
C1026      C1306   1.467       .  S
O1027     Cu1035   2.009       .  S
O1027      C1037   1.278       .  A
O1028     Cu1035   2.009       .  S
O1028      C1038   1.277       .  A
O1029     Cu1035   2.012       .  S
O1029      C1039   1.279       .  A
O1030     Cu1035   2.005       .  S
O1030      C1040   1.278       .  A
O1031     Cu1036   2.012       .  S
O1031      C1040   1.279       .  A
O1032     Cu1036   2.004       .  S
O1032      C1039   1.278       .  A
O1033     Cu1036   2.010       .  S
O1033      C1038   1.278       .  A
O1034     Cu1036   2.010       .  S
O1034      C1037   1.278       .  A
Cu1035    Cu1036   2.373       .  S
C1037      C1781   1.472       .  S
C1038      C1317   1.467       .  S
C1039      C1741   1.481       .  S
C1040      C1751   1.481       .  S
O1041     Cu1049   2.010       .  S
O1041      C2907   1.278       .  A
O1042     Cu1049   2.007       .  S
O1042      C2908   1.277       .  A
O1043     Cu1049   2.005       .  S
O1043      C2909   1.278       .  A
O1044      C2910   1.279       .  A
O1045      C1054   1.278   1_455  A
O1046     Cu1050   2.012       .  S
O1046      C1053   1.279       .  A
O1047     Cu1050   2.007       .  S
O1047      C1052   1.277   1_455  A
O1048     Cu1050   2.010       .  S
O1048      C1051   1.278       .  A
Cu1049    Cu2906   2.373       .  S
Cu1050    Cu2905   2.373   1_455  S
C1051      O2897   1.278   1_455  A
C1051      C1728   1.475       .  S
C1052      O2898   1.277       .  A
C1052      C1108   1.465       .  S
C1053      O2899   1.278   1_455  A
C1053      C1721   1.481       .  S
C1054      O2900   1.279       .  A
C1054      C1708   1.481       .  S
O1055     Cu1063   2.007       .  S
O1055      C2921   1.277       .  A
O1056     Cu1063   2.007       .  S
O1056      C2922   1.277       .  A
O1057     Cu1063   2.012       .  S
O1057      C2923   1.279       .  A
O1058     Cu1063   2.005       .  S
O1058      C2924   1.278       .  A
O1059     Cu1064   2.013       .  S
O1059      C1068   1.279       .  A
O1060     Cu1064   2.004       .  S
O1060      C1067   1.278   1_455  A
O1061     Cu1064   2.008       .  S
O1061      C1066   1.277       .  A
O1062     Cu1064   2.007       .  S
O1062      C1065   1.277       .  A
Cu1063    Cu2920   2.373       .  S
Cu1064    Cu2919   2.373   1_455  S
C1065      O2911   1.277   1_455  A
C1065      C1121   1.466       .  S
C1066      O2912   1.277   1_455  A
C1066      C1698   1.470   1_455  S
C1067      O2913   1.279       .  A
C1067      C1718   1.481       .  S
C1068      O2914   1.278   1_455  A
C1068      C1711   1.481       .  S
O1069     Cu1077   2.012       .  S
O1069      C1079   1.279       .  A
O1070      C1080   1.278       .  A
O1071     Cu1077   2.006       .  S
O1071      C1081   1.277       .  A
O1072     Cu1077   2.007       .  S
O1072      C1082   1.277       .  A
O1073     Cu1078   2.007       .  S
O1073      C1082   1.277       .  A
O1074     Cu1078   2.005       .  S
O1074      C1081   1.277       .  A
O1075      C1080   1.279       .  A
O1076     Cu1078   2.005       .  S
O1076      C1079   1.278       .  A
Cu1077    Cu1078   2.373       .  S
C1079      C1678   1.481       .  S
C1080      C1668   1.481       .  S
C1081      C1688   1.468       .  S
C1082      C1135   1.466       .  S
O1083     Cu1091   2.005       .  S
O1083      C1093   1.278       .  A
O1084     Cu1091   2.012       .  S
O1084      C1094   1.279       .  A
O1085     Cu1091   2.009       .  S
O1085      C1095   1.277       .  A
O1086     Cu1091   2.009       .  S
O1086      C1096   1.278       .  A
O1087     Cu1092   2.009       .  S
O1087      C1096   1.278       .  A
O1088     Cu1092   2.008       .  S
O1088      C1095   1.277       .  A
O1089     Cu1092   2.004       .  S
O1089      C1094   1.278       .  A
O1090     Cu1092   2.012       .  S
O1090      C1093   1.279       .  A
Cu1091    Cu1092   2.373       .  S
C1093      C1681   1.481       .  S
C1094      C1671   1.481       .  S
C1095      C1149   1.466       .  S
C1096      C1658   1.471       .  S
O1097     Cu1105   2.007       .  S
O1097      C2963   1.278       .  A
O1098     Cu1105   2.007       .  S
O1098      C2964   1.277       .  A
O1099      C2965   1.278       .  A
O1100     Cu1105   2.009       .  S
O1100      C2966   1.278       .  A
O1101     Cu1106   2.008       .  S
O1101      C1110   1.278   1_455  A
O1102      C1109   1.278       .  A
O1103     Cu1106   2.006       .  S
O1103      C1108   1.277   1_455  A
O1104     Cu1106   2.006       .  S
O1104      C1107   1.278       .  A
Cu1105    Cu2962   2.372       .  S
Cu1106    Cu2961   2.372   1_455  S
C1107      O2953   1.278   1_455  A
C1107      C1648   1.480       .  S
C1108      O2954   1.277       .  A
C1109      O2955   1.278   1_455  A
C1109      C1628   1.481       .  S
C1110      O2956   1.278       .  A
C1110      C1638   1.481       .  S
O1111     Cu1119   2.008       .  S
O1111      C2977   1.277       .  A
O1112     Cu1119   2.009       .  S
O1112      C2978   1.278       .  A
O1113     Cu1119   2.008       .  S
O1113      C2979   1.278       .  A
O1114     Cu1119   2.008       .  S
O1114      C2980   1.278       .  A
O1115     Cu1120   2.009       .  S
O1115      C1124   1.278       .  A
O1116     Cu1120   2.008       .  S
O1116      C1123   1.278       .  A
O1117     Cu1120   2.009       .  S
O1117      C1122   1.278       .  A
O1118     Cu1120   2.008       .  S
O1118      C1121   1.277       .  A
Cu1119    Cu2976   2.372       .  S
Cu1120    Cu2975   2.372   1_455  S
C1121      O2967   1.277   1_455  A
C1122      O2968   1.278   1_455  A
C1122      C1618   1.482       .  S
C1123      O2969   1.278   1_455  A
C1123      C1631   1.481       .  S
C1124      O2970   1.278   1_455  A
C1124      C1641   1.481       .  S
O1125     Cu1133   2.008       .  S
O1125      C1135   1.277       .  A
O1126     Cu1133   2.010       .  S
O1126      C1136   1.279       .  A
O1127     Cu1133   2.008       .  S
O1127      C1137   1.278       .  A
O1128      C1138   1.278       .  A
O1129      C1138   1.278       .  A
O1130     Cu1134   2.008       .  S
O1130      C1137   1.278       .  A
O1131     Cu1134   2.010       .  S
O1131      C1136   1.279       .  A
O1132     Cu1134   2.009       .  S
O1132      C1135   1.277       .  A
Cu1133    Cu1134   2.372       .  S
C1136      C1608   1.483       .  S
C1137      C1598   1.481       .  S
C1138      C1588   1.481       .  S
O1139     Cu1147   2.008       .  S
O1139      C1149   1.277       .  A
O1140     Cu1147   2.008       .  S
O1140      C1150   1.278       .  A
O1141     Cu1147   2.009       .  S
O1141      C1151   1.278       .  A
O1142     Cu1147   2.008       .  S
O1142      C1152   1.278       .  A
O1143     Cu1148   2.009       .  S
O1143      C1152   1.278       .  A
O1144     Cu1148   2.008       .  S
O1144      C1151   1.278       .  A
O1145     Cu1148   2.008       .  S
O1145      C1150   1.278       .  A
O1146     Cu1148   2.008       .  S
O1146      C1149   1.277       .  A
Cu1147    Cu1148   2.372       .  S
C1150      C1578   1.481       .  S
C1151      C1591   1.481       .  S
C1152      C1601   1.481       .  S
O1153     Cu1161   2.007       .  S
O1154     Cu1161   2.008       .  S
O1155     Cu3017   2.008       .  S
O1156     Cu1161   2.008       .  S
O1157     Cu1162   2.008       .  S
O1157      C1166   1.278       .  A
O1158     Cu3018   2.008       .  S
O1158      C1165   1.278       .  A
O1159     Cu1162   2.009       .  S
O1159      C1164   1.278   1_455  A
O1160     Cu1162   2.008   1_655  S
O1160      C1163   1.278   1_655  A
Cu1161     O3011   2.009   1_455  S
Cu1162     O3014   2.008   1_455  S
C1163      C1568   1.480       .  S
C1164      C1221   1.467       .  S
C1165      C1548   1.481       .  S
C1166      C1558   1.481       .  S
O1167     Cu1175   2.008       .  S
O1167      C1177   1.278       .  A
O1168     Cu1175   2.006       .  S
O1168      C1178   1.277   1_455  A
O1169     Cu3031   2.009       .  S
O1169      C1179   1.278       .  A
O1170     Cu1175   2.008       .  S
O1170      C1180   1.279       .  A
O1171     Cu1176   2.009   1_455  S
O1171      C1180   1.278       .  A
O1172     Cu3032   2.008       .  S
O1172      C1179   1.279       .  A
O1173     Cu1176   2.008       .  S
O1173      C1178   1.277       .  A
O1174     Cu1176   2.009   1_455  S
O1174      C1177   1.278       .  A
Cu1175     O3025   2.009   1_455  S
Cu1175    Cu1176   2.372   1_455  S
Cu1176     O3028   2.008       .  S
C1177      C1538   1.481       .  S
C1178      C1235   1.466       .  S
C1179      C1518   1.481       .  S
C1180      C1528   1.481       .  S
O1181     Cu1189   2.009       .  S
O1182     Cu1189   2.007       .  S
O1183     Cu1189   2.009       .  S
O1184     Cu1189   2.008       .  S
O1185     Cu1190   2.009       .  S
O1185      C1194   1.278       .  A
O1186     Cu1190   2.008       .  S
O1186      C1193   1.278       .  A
O1187     Cu1190   2.008       .  S
O1187      C1192   1.277       .  A
O1188     Cu1190   2.009       .  S
O1188      C1191   1.278       .  A
C1191      C1508   1.482       .  S
C1192      C1247   1.466       .  S
C1193      C1561   1.481       .  S
C1194      C1551   1.481       .  S
O1195     Cu1203   2.008       .  S
O1195      C1205   1.277       .  A
O1196     Cu1203   2.009       .  S
O1196      C1206   1.278       .  A
O1197     Cu1203   2.012       .  S
O1197      C1207   1.279       .  A
O1198     Cu1203   2.005       .  S
O1198      C1208   1.278       .  A
O1199     Cu1204   2.012       .  S
O1199      C1208   1.279       .  A
O1200     Cu1204   2.005       .  S
O1200      C1207   1.278       .  A
O1201     Cu1204   2.009       .  S
O1201      C1206   1.278       .  A
O1202     Cu1204   2.009       .  S
O1202      C1205   1.278       .  A
Cu1203    Cu1204   2.372       .  S
C1205      C1264   1.467       .  S
C1206      C1498   1.476       .  S
C1207      C1521   1.481       .  S
C1208      C1531   1.481       .  S
O1209     Cu3073   2.004       .  S
O1209      C1219   1.278       .  A
O1210     Cu1217   2.012   1_455  S
O1210      C1220   1.279       .  A
O1211     Cu1217   2.010   1_455  S
O1211      C1221   1.278   1_455  A
O1212     Cu1217   2.010       .  S
O1212      C1222   1.277       .  A
O1213     Cu1218   2.010       .  S
O1214     Cu1218   2.009   1_655  S
O1215     Cu1218   2.004       .  S
O1216     Cu3074   2.012       .  S
Cu1217     O3065   2.004       .  S
Cu1218     O3072   2.013   1_455  S
C1219      C1478   1.481       .  S
C1220      C1488   1.481       .  S
C1222      C1731   1.470       .  S
O1223     Cu3087   2.004       .  S
O1223      C1233   1.278       .  A
O1224     Cu1231   2.012   1_455  S
O1224      C1234   1.279       .  A
O1225     Cu1231   2.007   1_455  S
O1225      C1235   1.277   1_455  A
O1226     Cu1231   2.006       .  S
O1226      C1236   1.277       .  A
O1227     Cu1232   2.007       .  S
O1227      C1236   1.277   1_455  A
O1228     Cu1232   2.007   1_655  S
O1228      C1235   1.277       .  A
O1229     Cu1232   2.005       .  S
O1229      C1234   1.278       .  A
O1230     Cu3088   2.012       .  S
O1230      C1233   1.279       .  A
Cu1231     O3079   2.004       .  S
Cu1231    Cu1232   2.373   1_655  S
Cu1232     O3086   2.013   1_455  S
C1233      C1458   1.481       .  S
C1234      C1468   1.481       .  S
C1236      C1701   1.469       .  S
O1237     Cu1245   2.007       .  S
O1237      C1247   1.277       .  A
O1238     Cu1245   2.005       .  S
O1238      C1248   1.277       .  A
O1239     Cu1245   2.012       .  S
O1239      C1249   1.279       .  A
O1240     Cu1245   2.005       .  S
O1240      C1250   1.278       .  A
O1241     Cu1246   2.012       .  S
O1242     Cu1246   2.004       .  S
O1243     Cu1246   2.005       .  S
O1244     Cu1246   2.006       .  S
C1248      C1691   1.468       .  S
C1249      C1481   1.481       .  S
C1250      C1491   1.481       .  S
O1251     Cu1259   2.012       .  S
O1251      C1261   1.279       .  A
O1252     Cu1259   2.005       .  S
O1252      C1262   1.278       .  A
O1253     Cu1259   2.008       .  S
O1253      C1263   1.277       .  A
O1254     Cu1259   2.009       .  S
O1254      C1264   1.277       .  A
O1255     Cu1260   2.009       .  S
O1255      C1264   1.278       .  A
O1256     Cu1260   2.009       .  S
O1256      C1263   1.278       .  A
O1257     Cu1260   2.012       .  S
O1257      C1262   1.279       .  A
O1258     Cu1260   2.005       .  S
O1258      C1261   1.278       .  A
Cu1259    Cu1260   2.373       .  S
C1261      C1471   1.481       .  S
C1262      C1461   1.481       .  S
C1263      C1661   1.471       .  S
O1265     Cu1273   2.008       .  S
O1265      C1275   1.277       .  A
O1266     Cu1273   2.007       .  S
O1266      C1276   1.278       .  A
O1267     Cu3129   2.009       .  S
O1267      C1277   1.278       .  A
O1268     Cu1273   2.008       .  S
O1268      C1278   1.278       .  A
O1269     Cu1274   2.009   1_455  S
O1270     Cu3130   2.007       .  S
O1271     Cu1274   2.007       .  S
O1272     Cu1274   2.007       .  S
Cu1273     O3123   2.009   1_455  S
Cu1274     O3126   2.008       .  S
C1277      C1438   1.481       .  S
C1278      C1451   1.481       .  S
O1279     Cu1287   2.008       .  S
O1279      C1289   1.277   1_455  A
O1280     Cu1287   2.008       .  S
O1280      C1290   1.278       .  A
O1281     Cu3143   2.009       .  S
O1281      C1291   1.278       .  A
O1282     Cu1287   2.009       .  S
O1282      C1292   1.278       .  A
O1283     Cu1288   2.008   1_455  S
O1283      C1292   1.278       .  A
O1284     Cu3144   2.009       .  S
O1284      C1291   1.278       .  A
O1285     Cu1288   2.009   1_455  S
O1285      C1290   1.278       .  A
O1286     Cu1288   2.008       .  S
O1286      C1289   1.277       .  A
Cu1287     O3137   2.008   1_455  S
Cu1287    Cu1288   2.372   1_455  S
Cu1288     O3140   2.008       .  S
C1290      C1541   1.481       .  S
C1291      C1418   1.481       .  S
C1292      C1428   1.481       .  S
O1293     Cu1301   2.008       .  S
O1293      C1303   1.278       .  A
O1294     Cu1301   2.008       .  S
O1294      C1304   1.278       .  A
O1295     Cu1301   2.010       .  S
O1295      C1305   1.279       .  A
O1296     Cu1301   2.009       .  S
O1296      C1306   1.278       .  A
O1297     Cu1302   2.008       .  S
O1298     Cu1302   2.010       .  S
O1299     Cu1302   2.009       .  S
O1300     Cu1302   2.008       .  S
C1303      C1448   1.481       .  S
C1304      C1441   1.481       .  S
O1307     Cu1315   2.009       .  S
O1307      C1317   1.278       .  A
O1308     Cu1315   2.009       .  S
O1308      C1318   1.278       .  A
O1309     Cu1315   2.006       .  S
O1309      C1319   1.278       .  A
O1310     Cu1315   2.011       .  S
O1310      C1320   1.279       .  A
O1311     Cu1316   2.006       .  S
O1311      C1320   1.278       .  A
O1312     Cu1316   2.011       .  S
O1312      C1319   1.279       .  A
O1313     Cu1316   2.008       .  S
O1313      C1318   1.278       .  A
O1314     Cu1316   2.009       .  S
O1314      C1317   1.277       .  A
Cu1315    Cu1316   2.373       .  S
C1318      C1501   1.476       .  S
C1319      C1421   1.481       .  S
C1320      C1431   1.481       .  S
O1321      C1331   1.278       .  A
O1322     Cu1329   2.008       .  S
O1322      C1332   1.278       .  A
O1323     Cu1329   2.006       .  S
O1323      C1333   1.277       .  A
O1324     Cu1329   2.007       .  S
O1324      C1334   1.278       .  A
O1325      C3190   1.278       .  A
O1326      C3189   1.277       .  A
O1327      C3188   1.278       .  A
O1328     Cu1330   2.008   1_565  S
O1328      C3187   1.278       .  A
Cu1329    Cu2258   2.372   1_455  S
Cu1330    Cu2257   2.372       .  S
C1331      O3184   1.278   1_455  A
C1331      C1401   1.481       .  S
C1332      O3183   1.278   1_455  A
C1332      C1408   1.481       .  S
C1333      O3182   1.277   1_455  A
C1334      O3181   1.278   1_455  A
C1334      C1651   1.480       .  S
O1335     Cu1343   2.008       .  S
O1335      C3201   1.277       .  A
O1336     Cu1343   2.009       .  S
O1336      C3202   1.278       .  A
O1337     Cu1343   2.008       .  S
O1337      C3203   1.278       .  A
O1338     Cu1343   2.009       .  S
O1338      C3204   1.278       .  A
O1339     Cu1344   2.008       .  S
O1339      C1348   1.278       .  A
O1340     Cu1344   2.008       .  S
O1340      C1347   1.278       .  A
O1341     Cu1344   2.010       .  S
O1341      C1346   1.279       .  A
O1342     Cu1344   2.009       .  S
O1342      C1345   1.278   1_455  A
Cu1343    Cu3200   2.372       .  S
Cu1344    Cu3199   2.372   1_455  S
C1345      O3191   1.277       .  A
C1345      C2810   1.466       .  S
C1346      O3192   1.278   1_455  A
C1346      C1621   1.482       .  S
C1347      O3193   1.278   1_455  A
C1347      C1411   1.481       .  S
C1348      O3194   1.278   1_455  A
C1348      C1398   1.481       .  S
O1349     Cu1357   2.010       .  S
O1349      C1359   1.278       .  A
O1350     Cu1357   2.010       .  S
O1351     Cu1357   2.008   1_565  S
O1351      C1361   1.278       .  A
O1352      C1362   1.278       .  A
O1353     Cu1358   2.008       .  S
O1353      C1362   1.278       .  A
O1354      C1361   1.278       .  A
O1355     Cu1358   2.010       .  S
O1355      C1360   1.279       .  A
O1356     Cu1358   2.009       .  S
C1360      C1611   1.483       .  S
C1361      C1378   1.481       .  S
C1362      C1388   1.481       .  S
O1363     Cu1371   2.008       .  S
O1363      C1373   1.278       .  A
O1364     Cu1371   2.008       .  S
O1364      C1374   1.278       .  A
O1365     Cu1371   2.008       .  S
O1365      C1375   1.278       .  A
O1366     Cu1371   2.008       .  S
O1366      C1376   1.278       .  A
O1367     Cu1372   2.008       .  S
O1367      C1376   1.278       .  A
O1368     Cu1372   2.009       .  S
O1368      C1375   1.278       .  A
O1369     Cu1372   2.008       .  S
O1369      C1374   1.277       .  A
O1370     Cu1372   2.008       .  S
O1370      C1373   1.278       .  A
Cu1371    Cu1372   2.372       .  S
C1373      C1581   1.481       .  S
C1375      C1381   1.481       .  S
C1376      C1391   1.481       .  S
C1377      C1378   1.406       .  A
C1377      C1382   1.398       .  A
C1377      H1383   1.083       .  S
C1378      C1379   1.405       .  A
C1379      C1380   1.397       .  A
C1379      H1384   1.083       .  S
C1380      C1381   1.406       .  A
C1380      H1385   1.083       .  S
C1381      C1382   1.406       .  A
C1382      H1386   1.083       .  S
C1387      C1388   1.405       .  A
C1387      C1392   1.397       .  A
C1387      H1393   1.083       .  S
C1388      C1389   1.406       .  A
C1389      C1390   1.398       .  A
C1389      H1394   1.083       .  S
C1390      C1391   1.406       .  A
C1390      H1395   1.083       .  S
C1391      C1392   1.405       .  A
C1392      H1396   1.083       .  S
C1397      C1398   1.406       .  A
C1397      C1402   1.398       .  A
C1397      H1403   1.083       .  S
C1398      C3255   1.406   1_455  A
C1399      C3254   1.406       .  A
C1399      C1400   1.398       .  A
C1399      H1404   1.083       .  S
C1400      C3257   1.406       .  A
C1400      H1405   1.083       .  S
C1401      C3256   1.406   1_455  A
C1401      C1402   1.406       .  A
C1402      H1406   1.083       .  S
C1407      C3264   1.406       .  A
C1407      C1412   1.398       .  A
C1407      H1413   1.083       .  S
C1408      C3263   1.406   1_455  A
C1408      C1409   1.406       .  A
C1409      C1410   1.398       .  A
C1409      H1414   1.083       .  S
C1410      C1411   1.406       .  A
C1410      H1415   1.083       .  S
C1411      C3268   1.405   1_455  A
C1412      C3267   1.406       .  A
C1412      H1416   1.083       .  S
C1417      C1418   1.405       .  A
C1417      C1422   1.397       .  A
C1417      H1423   1.083       .  S
C1418      C1419   1.406       .  A
C1419      C1420   1.398       .  A
C1419      H1424   1.083       .  S
C1420      C1421   1.406       .  A
C1420      H1425   1.083       .  S
C1421      C1422   1.406       .  A
C1422      H1426   1.083       .  S
C1427      C1428   1.405       .  A
C1427      C1432   1.397       .  A
C1427      H1433   1.083       .  S
C1428      C1429   1.406       .  A
C1429      C1430   1.398       .  A
C1429      H1434   1.083       .  S
C1430      C1431   1.406       .  A
C1430      H1435   1.083       .  S
C1431      C1432   1.406       .  A
C1432      H1436   1.083       .  S
C1437      C1438   1.406       .  A
C1437      C1442   1.398       .  A
C1437      H1443   1.083       .  S
C1439      C1440   1.398       .  A
C1439      H1444   1.083       .  S
C1440      H1445   1.083       .  S
C1441      C1442   1.406       .  A
C1442      H1446   1.083       .  S
C1447      C1448   1.405       .  A
C1447      C1452   1.397       .  A
C1447      H1453   1.083       .  S
C1449      C1450   1.398       .  A
C1449      H1454   1.083       .  S
C1450      H1455   1.083       .  S
C1451      C1452   1.406       .  A
C1452      H1456   1.083       .  S
C1457      C1458   1.405       .  A
C1457      C1462   1.398       .  A
C1457      H1463   1.083       .  S
C1458      C1459   1.406       .  A
C1459      C1460   1.397       .  A
C1459      H1464   1.083       .  S
C1460      C1461   1.405       .  A
C1460      H1465   1.083       .  S
C1461      C1462   1.406       .  A
C1462      H1466   1.083       .  S
C1467      C1468   1.405       .  A
C1467      C1472   1.398       .  A
C1467      H1473   1.083       .  S
C1468      C1469   1.406       .  A
C1469      C1470   1.397       .  A
C1469      H1474   1.083       .  S
C1470      C1471   1.405       .  A
C1470      H1475   1.083       .  S
C1471      C1472   1.406       .  A
C1472      H1476   1.083       .  S
C1477      C1482   1.398       .  A
C1477      H1483   1.083       .  S
C1478      C1479   1.406       .  A
C1479      C1480   1.398       .  A
C1479      H1484   1.083       .  S
C1480      C1481   1.405       .  A
C1480      H1485   1.083       .  S
C1482      H1486   1.083       .  S
C1487      C1492   1.398       .  A
C1487      H1493   1.083       .  S
C1488      C1489   1.405       .  A
C1489      C1490   1.398       .  A
C1489      H1494   1.083       .  S
C1490      C1491   1.406       .  A
C1490      H1495   1.083       .  S
C1492      H1496   1.083       .  S
C1497      C1498   1.405       .  A
C1497      C1502   1.398       .  A
C1497      H1503   1.083       .  S
C1498      C1499   1.405       .  A
C1499      C1500   1.398       .  A
C1499      H1504   1.083       .  S
C1500      C1501   1.404   1_554  A
C1500      H1505   1.083   1_554  S
C1501      C1502   1.405   1_556  A
C1502      H1506   1.083   1_554  S
C1507      C1512   1.398       .  A
C1507      H1513   1.083       .  S
C1508      C1509   1.406       .  A
C1509      C1510   1.398       .  A
C1509      H1514   1.083       .  S
C1510      C1511   1.406   1_554  A
C1510      H1515   1.083   1_554  S
C1512      H1516   1.083   1_554  S
C1517      C1518   1.406       .  A
C1517      C1522   1.399       .  A
C1517      H1523   1.083       .  S
C1518      C1519   1.405       .  A
C1519      C1520   1.396       .  A
C1519      H1524   1.083       .  S
C1520      C1521   1.405       .  A
C1520      H1525   1.083       .  S
C1521      C1522   1.406       .  A
C1522      H1526   1.083       .  S
C1527      C1528   1.405       .  A
C1527      C1532   1.396       .  A
C1527      H1533   1.083       .  S
C1528      C1529   1.406       .  A
C1529      C1530   1.399       .  A
C1529      H1534   1.083       .  S
C1530      C1531   1.406       .  A
C1530      H1535   1.083       .  S
C1531      C1532   1.405       .  A
C1532      H1536   1.083       .  S
C1537      C1538   1.406   1_655  A
C1537      C1542   1.398       .  A
C1537      H1543   1.083       .  S
C1538      C3395   1.406       .  A
C1539      C3394   1.406       .  A
C1539      C1540   1.398       .  A
C1539      H1544   1.083       .  S
C1540      C3397   1.406   1_554  A
C1540      H1545   1.083   1_554  S
C1541      C3396   1.406   1_556  A
C1541      C1542   1.406   1_456  A
C1542      H1546   1.083   1_554  S
C1547      C1548   1.406       .  A
C1547      C1552   1.398       .  A
C1547      H1553   1.083       .  S
C1549      C1550   1.398       .  A
C1549      H1554   1.083       .  S
C1550      H1555   1.083       .  S
C1551      C1552   1.405       .  A
C1552      H1556   1.083       .  S
C1557      C1558   1.405       .  A
C1557      C1562   1.398       .  A
C1557      H1563   1.083       .  S
C1559      C1560   1.398       .  A
C1559      H1564   1.083       .  S
C1560      H1565   1.083       .  S
C1561      C1562   1.406       .  A
C1562      H1566   1.083       .  S
C1567      C1568   1.405   1_655  A
C1567      C1572   1.398       .  A
C1567      H1573   1.083       .  S
C1568      C2497   1.405       .  A
C1569      C2496   1.405   1_565  A
C1569      C1570   1.397       .  A
C1569      H1574   1.083       .  S
C1570      C2499   1.405   1_564  A
C1570      H1575   1.083   1_554  S
C1571      C2498   1.405   1_556  A
C1571      C1572   1.406   1_456  A
C1572      H1576   1.083   1_554  S
C1577      C1578   1.406       .  A
C1577      C1582   1.398       .  A
C1577      H1583   1.083       .  S
C1578      C1579   1.406       .  A
C1579      C1580   1.398       .  A
C1579      H1584   1.083       .  S
C1580      C1581   1.406       .  A
C1580      H1585   1.083       .  S
C1581      C1582   1.406       .  A
C1582      H1586   1.083       .  S
C1587      C1588   1.406       .  A
C1587      C1592   1.398       .  A
C1587      H1593   1.083       .  S
C1588      C1589   1.406       .  A
C1589      C1590   1.398       .  A
C1589      H1594   1.083       .  S
C1590      C1591   1.406       .  A
C1590      H1595   1.083       .  S
C1591      C1592   1.406       .  A
C1592      H1596   1.083       .  S
C1597      C1598   1.406       .  A
C1597      C1602   1.398       .  A
C1597      H1603   1.083       .  S
C1598      C1599   1.406       .  A
C1599      C1600   1.398       .  A
C1599      H1604   1.083       .  S
C1600      C1601   1.406       .  A
C1600      H1605   1.083       .  S
C1601      C1602   1.406       .  A
C1602      H1606   1.083       .  S
C1607      C1612   1.399       .  A
C1607      H1613   1.083       .  S
C1608      C1609   1.406       .  A
C1609      C1610   1.399       .  A
C1609      H1614   1.083       .  S
C1610      C1611   1.406       .  A
C1610      H1615   1.083       .  S
C1612      H1616   1.083       .  S
C1617      C1618   1.406       .  A
C1617      C1622   1.398       .  A
C1617      H1623   1.083       .  S
C1618      C3475   1.406   1_455  A
C1619      C3474   1.406       .  A
C1619      C1620   1.398       .  A
C1619      H1624   1.083       .  S
C1620      C3477   1.406       .  A
C1620      H1625   1.083       .  S
C1621      C3476   1.406   1_455  A
C1621      C1622   1.406       .  A
C1622      H1626   1.083       .  S
C1627      C3484   1.406       .  A
C1627      C1632   1.398       .  A
C1627      H1633   1.083       .  S
C1628      C3483   1.406   1_455  A
C1628      C1629   1.406       .  A
C1629      C1630   1.398       .  A
C1629      H1634   1.083       .  S
C1630      C1631   1.406       .  A
C1630      H1635   1.083       .  S
C1631      C3488   1.406   1_455  A
C1632      C3487   1.406       .  A
C1632      H1636   1.083       .  S
C1637      C3494   1.406       .  A
C1637      C1642   1.398       .  A
C1637      H1643   1.083       .  S
C1638      C3493   1.406       .  A
C1638      C1639   1.406   1_655  A
C1639      C1640   1.398       .  A
C1639      H1644   1.083       .  S
C1640      C1641   1.406       .  A
C1640      H1645   1.083       .  S
C1641      C3498   1.406   1_455  A
C1642      C3497   1.406       .  A
C1642      H1646   1.083       .  S
C1647      C3504   1.405       .  A
C1647      C1652   1.397       .  A
C1647      H1653   1.083       .  S
C1648      C3503   1.405   1_455  A
C1649      C1650   1.397       .  A
C1649      H1654   1.083       .  S
C1650      H1655   1.083       .  S
C1651      C3508   1.405   1_455  A
C1652      C3507   1.405       .  A
C1652      H1656   1.083       .  S
C1657      C1658   1.403       .  A
C1657      C1662   1.398       .  A
C1657      H1663   1.083       .  S
C1658      C1659   1.403       .  A
C1659      C1660   1.398       .  A
C1659      H1664   1.083       .  S
C1660      C1661   1.403       .  A
C1660      H1665   1.084       .  S
C1661      C1662   1.403       .  A
C1662      H1666   1.084       .  S
C1667      C1668   1.405       .  A
C1667      C1672   1.398       .  A
C1667      H1673   1.083       .  S
C1668      C1669   1.406       .  A
C1669      C1670   1.398       .  A
C1669      H1674   1.083       .  S
C1670      C1671   1.405       .  A
C1670      H1675   1.083       .  S
C1671      C1672   1.406       .  A
C1672      H1676   1.083       .  S
C1677      C1678   1.405       .  A
C1677      C1682   1.398       .  A
C1677      H1683   1.083       .  S
C1678      C1679   1.406       .  A
C1679      C1680   1.398       .  A
C1679      H1684   1.083       .  S
C1680      C1681   1.405       .  A
C1680      H1685   1.083       .  S
C1681      C1682   1.406       .  A
C1682      H1686   1.083       .  S
C1687      C1692   1.397       .  A
C1687      H1693   1.083       .  S
C1688      C1689   1.403       .  A
C1689      C1690   1.397       .  A
C1689      H1694   1.083       .  S
C1690      C1691   1.403       .  A
C1690      H1695   1.084       .  S
C1692      H1696   1.084       .  S
C1697      C1698   1.403   1_455  A
C1697      C1702   1.398       .  A
C1697      H1703   1.084       .  S
C1698      C3555   1.403       .  A
C1699      C3554   1.403       .  A
C1699      C1700   1.398       .  A
C1699      H1704   1.084       .  S
C1700      C3557   1.403       .  A
C1700      H1705   1.083       .  S
C1701      C3556   1.403       .  A
C1701      C1702   1.403   1_655  A
C1702      H1706   1.083       .  S
C1707      C3564   1.405       .  A
C1707      C1712   1.398       .  A
C1707      H1713   1.083       .  S
C1708      C3563   1.405       .  A
C1708      C1709   1.406   1_655  A
C1709      C1710   1.398       .  A
C1709      H1714   1.083       .  S
C1710      C1711   1.405       .  A
C1710      H1715   1.083       .  S
C1711      C3568   1.406   1_455  A
C1712      C3567   1.406       .  A
C1712      H1716   1.083       .  S
C1717      C1718   1.406   1_455  A
C1717      C1722   1.398       .  A
C1717      H1723   1.083       .  S
C1718      C3575   1.405       .  A
C1719      C3574   1.405       .  A
C1719      C1720   1.398       .  A
C1719      H1724   1.083       .  S
C1720      C3577   1.406       .  A
C1720      H1725   1.083       .  S
C1721      C3576   1.406   1_455  A
C1721      C1722   1.405       .  A
C1722      H1726   1.083       .  S
C1727      C3584   1.405       .  A
C1727      C1732   1.399       .  A
C1727      H1733   1.083       .  S
C1728      C3583   1.405   1_455  A
C1729      C1730   1.399       .  A
C1729      H1734   1.083       .  S
C1730      H1735   1.084       .  S
C1731      C3588   1.403       .  A
C1732      C3587   1.403       .  A
C1732      H1736   1.084       .  S
C1737      C1738   1.406       .  A
C1737      C1742   1.397       .  A
C1737      H1743   1.083       .  S
C1738      C1739   1.405       .  A
C1739      C1740   1.398       .  A
C1739      H1744   1.083       .  S
C1740      C1741   1.405       .  A
C1740      H1745   1.083       .  S
C1741      C1742   1.406       .  A
C1742      H1746   1.083       .  S
C1747      C1748   1.406       .  A
C1747      C1752   1.397       .  A
C1747      H1753   1.083       .  S
C1748      C1749   1.406       .  A
C1749      C1750   1.398       .  A
C1749      H1754   1.083       .  S
C1750      C1751   1.405       .  A
C1750      H1755   1.083       .  S
C1751      C1752   1.406       .  A
C1752      H1756   1.083       .  S
C1757      C1762   1.398       .  A
C1757      H1763   1.083       .  S
C1758      C1759   1.406       .  A
C1759      C1760   1.398       .  A
C1759      H1764   1.083       .  S
C1760      C1761   1.405       .  A
C1760      H1765   1.083       .  S
C1762      H1766   1.083       .  S
C1767      C1772   1.398       .  A
C1767      H1773   1.083       .  S
C1768      C1769   1.405       .  A
C1769      C1770   1.398       .  A
C1769      H1774   1.083       .  S
C1770      C1771   1.406       .  A
C1770      H1775   1.083       .  S
C1772      H1776   1.083       .  S
C1777      C1778   1.403       .  A
C1777      C1782   1.399       .  A
C1777      H1783   1.084       .  S
C1778      C1779   1.403       .  A
C1779      C1780   1.399       .  A
C1779      H1784   1.084       .  S
C1780      C1781   1.404       .  A
C1780      H1785   1.083       .  S
C1781      C1782   1.403       .  A
C1782      H1786   1.083       .  S
C1787      C1788   1.406       .  A
C1787      C1792   1.397       .  A
C1787      H1793   1.083       .  S
C1788      C1789   1.406       .  A
C1789      C1790   1.398       .  A
C1789      H1794   1.083       .  S
C1790      C1791   1.406       .  A
C1790      H1795   1.083       .  S
C1791      C1792   1.405       .  A
C1792      H1796   1.083       .  S
C1797      C1798   1.406       .  A
C1797      C1802   1.398       .  A
C1797      H1803   1.083       .  S
C1798      C1799   1.406       .  A
C1799      C1800   1.397       .  A
C1799      H1804   1.083       .  S
C1800      C1801   1.406       .  A
C1800      H1805   1.083       .  S
C1801      C1802   1.406       .  A
C1802      H1806   1.083       .  S
C1807      C1808   1.403       .  A
C1807      C1812   1.398       .  A
C1807      H1813   1.083       .  S
C1809      C1810   1.398       .  A
C1809      H1814   1.083       .  S
C1810      H1815   1.083       .  S
C1811      C1812   1.403       .  A
C1812      H1816   1.083       .  S
C1817      C1818   1.403       .  A
C1817      C1822   1.398       .  A
C1817      H1823   1.084       .  S
C1818      C3675   1.403       .  A
C1819      C3674   1.403   1_455  A
C1819      C1820   1.398       .  A
C1819      H1824   1.084       .  S
C1820      C1821   1.403       .  A
C1820      H1825   1.083       .  S
C1821      C3678   1.403   1_455  A
C1822      C3677   1.403       .  A
C1822      H1826   1.083       .  S
C1827      C3684   1.405   1_455  A
C1827      C1832   1.398       .  A
C1827      H1833   1.083       .  S
C1828      C2797   1.481       .  S
C1828      C3683   1.405       .  A
C1828      C1829   1.406       .  A
C1829      C1830   1.398       .  A
C1829      H1834   1.083       .  S
C1830      C1831   1.405       .  A
C1830      H1835   1.083       .  S
C1831      C3688   1.406       .  A
C1832      C3687   1.406   1_455  A
C1832      H1836   1.083       .  S
C1837      C1838   1.405       .  A
C1837      C1842   1.398       .  A
C1837      H1843   1.083       .  S
C1838      C2798   1.481       .  S
C1838      C3695   1.406       .  A
C1839      C3694   1.406   1_455  A
C1839      C1840   1.398       .  A
C1839      H1844   1.083       .  S
C1840      C3697   1.405   1_455  A
C1840      H1845   1.083       .  S
C1841      C3696   1.405       .  A
C1841      C1842   1.406       .  A
C1842      H1846   1.083       .  S
C1847      C3704   1.403       .  A
C1847      C1852   1.399       .  A
C1847      H1853   1.083       .  S
C1848      C2795   1.471       .  S
C1848      C3703   1.403       .  A
C1849      C1850   1.398       .  A
C1849      H1854   1.083       .  S
C1850      H1855   1.083       .  S
C1851      C3708   1.403   1_455  A
C1852      C3707   1.403       .  A
C1852      H1856   1.083       .  S
O1857     Cu1865   2.010       .  S
O1857      C1867   1.278       .  A
O1858     Cu2793   2.007   1_545  S
O1859     Cu1865   2.004       .  S
O1860     Cu2793   2.012   1_545  S
O1861     Cu1866   2.005       .  S
O1861      C1870   1.278       .  A
O1862     Cu2794   2.013       .  S
O1862      C1869   1.279       .  A
O1863     Cu1866   2.006   1_565  S
O1863      C1868   1.277   1_565  A
O1864     Cu2794   2.008       .  S
Cu1865     O2786   2.007       .  S
Cu1865     O2788   2.011       .  S
Cu1866     O2790   2.013   1_545  S
Cu1866     O2792   2.009       .  S
C1868      C2261   1.465       .  S
O1871     Cu1879   2.009       .  S
O1871      C1881   1.278       .  A
O1872     Cu1879   2.008       .  S
O1872      C1882   1.277       .  A
O1873     Cu1879   2.006       .  S
O1873      C1883   1.278       .  A
O1874     Cu1879   2.013       .  S
O1874      C1884   1.279       .  A
O1875     Cu1880   2.004       .  S
O1876     Cu1880   2.012       .  S
O1877     Cu1880   2.007       .  S
O1878     Cu1880   2.008       .  S
C1881      C2746   1.471       .  S
C1883      C2769   1.481       .  S
C1884      C2759   1.481       .  S
O1885     Cu1893   2.008   1_545  S
O1885      C1895   1.277       .  A
O1886     Cu2821   2.008       .  S
O1886      C1896   1.277       .  A
O1887     Cu1893   2.012   1_545  S
O1887      C1897   1.279       .  A
O1888     Cu2821   2.005       .  S
O1888      C1898   1.278       .  A
O1889     Cu1894   2.012       .  S
O1889      C1898   1.279       .  A
O1890     Cu2822   2.004       .  S
O1890      C1897   1.278       .  A
O1891     Cu1894   2.006       .  S
O1891      C1896   1.277       .  A
O1892     Cu1894   2.008       .  S
O1892      C2823   1.277       .  A
Cu1893     O2814   2.007       .  S
Cu1893     O2816   2.004       .  S
Cu1893    Cu2822   2.373   1_565  S
Cu1894     O2818   2.004       .  S
Cu1894    Cu2821   2.373       .  S
C1895      O2820   1.278   1_545  A
C1895      C3215   1.467       .  S
C1896      C2736   1.469       .  S
C1897      C2726   1.481       .  S
C1898      C2719   1.481       .  S
O1899     Cu1907   2.004       .  S
O1899      C1909   1.278       .  A
O1900     Cu1907   2.013       .  S
O1900      C1910   1.279       .  A
O1901     Cu1907   2.009       .  S
O1901      C1911   1.277       .  A
O1902     Cu1907   2.009       .  S
O1902      C1912   1.278       .  A
O1903     Cu1908   2.008       .  S
O1903      C1912   1.277       .  A
O1904     Cu1908   2.009       .  S
O1904      C1911   1.277       .  A
O1905     Cu1908   2.004       .  S
O1905      C1910   1.278       .  A
O1906     Cu1908   2.013       .  S
O1906      C1909   1.279       .  A
Cu1907    Cu1908   2.373       .  S
C1909      C2729   1.481       .  S
C1910      C2716   1.481       .  S
C1911      C2706   1.469       .  S
C1912      C2302   1.467       .  S
O1913     Cu1921   2.009       .  S
O1913      C1923   1.278       .  A
O1914     Cu1921   2.009       .  S
O1914      C1924   1.277       .  A
O1915      C1925   1.278       .  A
O1916     Cu1921   2.013       .  S
O1916      C1926   1.279       .  A
O1917     Cu1922   2.004       .  S
O1917      C2854   1.278   1_545  A
O1918      C2853   1.279   1_545  A
O1919     Cu1922   2.008       .  S
O1919      C2852   1.277   1_545  A
O1920     Cu1922   2.009       .  S
O1920      C2851   1.278   1_545  A
Cu1921    Cu2850   2.373       .  S
Cu1922    Cu2849   2.373   1_545  S
C1923      O2848   1.277       .  A
C1923      C2779   1.471       .  S
C1924      O2847   1.277       .  A
C1924      C2203   1.466       .  S
C1925      O2846   1.279       .  A
C1925      C2686   1.481       .  S
C1926      O2845   1.278       .  A
C1926      C2696   1.481       .  S
O1927     Cu1935   2.008       .  S
O1927      C1937   1.277       .  A
O1928     Cu1935   2.009       .  S
O1928      C1938   1.278       .  A
O1929      C1939   1.278       .  A
O1930     Cu1935   2.013       .  S
O1930      C1940   1.279       .  A
O1931     Cu1936   2.004       .  S
O1931      C1940   1.278       .  A
O1932      C1939   1.279       .  A
O1933     Cu1936   2.007       .  S
O1933      C1938   1.277       .  A
O1934     Cu1936   2.007       .  S
O1934      C1937   1.277       .  A
Cu1935    Cu1936   2.373       .  S
C1937      C2749   1.470       .  S
C1938      C2217   1.466       .  S
C1939      C2666   1.481       .  S
C1940      C2676   1.481       .  S
O1941     Cu1949   2.012       .  S
O1941      C1951   1.279       .  A
O1942     Cu1949   2.005       .  S
O1942      C1952   1.278       .  A
O1943     Cu1949   2.006       .  S
O1943      C1953   1.277       .  A
O1944     Cu1949   2.008       .  S
O1944      C1954   1.277       .  A
O1945     Cu1950   2.007       .  S
O1945      C2882   1.277   1_545  A
O1946     Cu1950   2.006       .  S
O1946      C2881   1.277   1_545  A
O1947     Cu1950   2.012       .  S
O1947      C2880   1.279   1_545  A
O1948     Cu1950   2.005       .  S
O1948      C2879   1.278   1_545  A
Cu1949    Cu2878   2.374       .  S
Cu1950    Cu2877   2.374   1_545  S
C1951      O2876   1.278       .  A
C1951      C2689   1.481       .  S
C1952      O2875   1.279       .  A
C1952      C2699   1.481       .  S
C1953      O2874   1.277       .  A
C1953      C2739   1.469       .  S
C1954      O2873   1.277       .  A
C1954      C2234   1.467       .  S
O1955     Cu1963   2.009       .  S
O1955      C1965   1.278       .  A
O1956     Cu1963   2.009       .  S
O1956      C1966   1.277       .  A
O1957     Cu1963   2.012       .  S
O1957      C1967   1.279       .  A
O1958     Cu1963   2.005       .  S
O1958      C1968   1.278       .  A
O1959     Cu1964   2.011       .  S
O1959      C1968   1.279       .  A
O1960     Cu1964   2.005       .  S
O1960      C1967   1.278       .  A
O1961     Cu1964   2.010       .  S
O1961      C1966   1.278       .  A
O1962     Cu1964   2.010       .  S
O1962      C1965   1.278       .  A
Cu1963    Cu1964   2.373       .  S
C1965      C2709   1.475       .  S
C1966      C2245   1.467       .  S
C1967      C2669   1.481       .  S
C1968      C2679   1.481       .  S
O1969     Cu1977   2.010       .  S
O1970     Cu1977   2.007   1_565  S
O1971     Cu1977   2.005       .  S
O1972     Cu2905   2.012       .  S
O1973     Cu2906   2.005       .  S
O1973      C1982   1.278       .  A
O1974     Cu1978   2.012   1_545  S
O1974      C1981   1.279       .  A
O1975     Cu1978   2.007   1_545  S
O1975      C1980   1.277   1_545  A
O1976     Cu1978   2.010       .  S
O1976      C1979   1.278   1_565  A
Cu1977     O2900   2.012   1_545  S
Cu1978     O2901   2.005       .  S
C1979      C2656   1.475       .  S
C1980      C2036   1.465       .  S
C1981      C2649   1.481       .  S
C1982      C2636   1.481       .  S
O1983     Cu1991   2.007       .  S
O1984     Cu1991   2.007       .  S
O1985     Cu1991   2.012       .  S
O1986     Cu1991   2.005       .  S
O1987     Cu1992   2.013       .  S
O1987      C1996   1.279       .  A
O1988     Cu1992   2.004       .  S
O1988      C1995   1.278       .  A
O1989     Cu1992   2.008       .  S
O1989      C1994   1.277       .  A
O1990     Cu1992   2.007       .  S
O1990      C1993   1.277       .  A
C1993      C2049   1.466       .  S
C1994      C2626   1.470       .  S
C1995      C2646   1.481       .  S
C1996      C2639   1.481       .  S
O1997     Cu2005   2.012   1_545  S
O1997      C2007   1.279       .  A
O1998     Cu2933   2.004       .  S
O1998      C2008   1.278       .  A
O1999     Cu2005   2.006       .  S
O1999      C2009   1.277   1_565  A
O2000     Cu2005   2.007   1_545  S
O2000      C2010   1.277   1_545  A
O2001     Cu2006   2.007   1_565  S
O2001      C2010   1.277       .  A
O2002     Cu2006   2.005       .  S
O2002      C2009   1.277       .  A
O2003     Cu2934   2.012       .  S
O2003      C2008   1.279       .  A
O2004     Cu2006   2.005       .  S
O2004      C2007   1.278       .  A
Cu2005     O2926   2.005       .  S
Cu2005    Cu2006   2.373   1_565  S
Cu2006     O2931   2.012   1_545  S
C2007      C2606   1.481       .  S
C2008      C2596   1.481       .  S
C2009      C2616   1.468       .  S
C2010      C2063   1.466       .  S
O2011     Cu2019   2.005       .  S
O2011      C2021   1.278       .  A
O2012     Cu2019   2.012       .  S
O2012      C2022   1.279       .  A
O2013     Cu2019   2.009       .  S
O2013      C2023   1.277       .  A
O2014     Cu2019   2.009       .  S
O2014      C2024   1.278       .  A
O2015     Cu2020   2.009       .  S
O2015      C2024   1.278       .  A
O2016     Cu2020   2.008       .  S
O2016      C2023   1.277       .  A
O2017     Cu2020   2.004       .  S
O2017      C2022   1.278       .  A
O2018     Cu2020   2.012       .  S
O2018      C2021   1.279       .  A
Cu2019    Cu2020   2.373       .  S
C2021      C2609   1.481       .  S
C2022      C2599   1.481       .  S
C2023      C2077   1.466       .  S
C2024      C2586   1.471       .  S
O2025     Cu2033   2.007       .  S
O2026     Cu2033   2.007       .  S
O2027     Cu2961   2.008       .  S
O2028     Cu2033   2.009   1_545  S
O2029     Cu2034   2.008   1_545  S
O2029      C2038   1.278       .  A
O2030     Cu2962   2.009       .  S
O2030      C2037   1.278       .  A
O2031     Cu2034   2.006       .  S
O2031      C2036   1.277       .  A
O2032     Cu2034   2.006       .  S
O2032      C2035   1.278       .  A
Cu2033     O2955   2.009       .  S
Cu2034     O2958   2.009       .  S
C2035      C2576   1.480   1_565  S
C2037      C2556   1.481       .  S
C2038      C2566   1.481       .  S
O2039     Cu2047   2.008       .  S
O2040     Cu2047   2.009       .  S
O2041     Cu2047   2.008       .  S
O2042     Cu2047   2.008       .  S
O2043     Cu2048   2.009       .  S
O2043      C2052   1.278       .  A
O2044     Cu2048   2.008       .  S
O2044      C2051   1.278       .  A
O2045     Cu2048   2.009       .  S
O2045      C2050   1.278       .  A
O2046     Cu2048   2.008       .  S
O2046      C2049   1.277       .  A
C2050      C2546   1.482       .  S
C2051      C2559   1.481       .  S
C2052      C2569   1.481       .  S
O2053     Cu2061   2.008       .  S
O2053      C2063   1.277       .  A
O2054     Cu2061   2.010       .  S
O2054      C2064   1.279       .  A
O2055     Cu2061   2.008   1_545  S
O2055      C2065   1.278       .  A
O2056     Cu2989   2.009       .  S
O2056      C2066   1.278       .  A
O2057     Cu2990   2.009       .  S
O2057      C2066   1.278       .  A
O2058     Cu2062   2.008   1_545  S
O2058      C2065   1.278       .  A
O2059     Cu2062   2.010       .  S
O2059      C2064   1.279       .  A
O2060     Cu2062   2.009       .  S
O2060      C2063   1.277       .  A
Cu2061     O2984   2.008       .  S
Cu2061    Cu2062   2.372       .  S
Cu2062     O2985   2.008       .  S
C2064      C2536   1.483   1_565  S
C2065      C2526   1.481       .  S
C2066      C2516   1.481       .  S
O2067     Cu2075   2.008       .  S
O2067      C2077   1.277       .  A
O2068     Cu2075   2.008       .  S
O2068      C2078   1.278       .  A
O2069     Cu2075   2.009       .  S
O2069      C2079   1.278       .  A
O2070     Cu2075   2.008       .  S
O2070      C2080   1.278       .  A
O2071     Cu2076   2.009       .  S
O2071      C2080   1.278       .  A
O2072     Cu2076   2.008       .  S
O2072      C2079   1.278       .  A
O2073     Cu2076   2.008       .  S
O2073      C2078   1.278       .  A
O2074     Cu2076   2.008       .  S
O2074      C2077   1.277       .  A
Cu2075    Cu2076   2.372       .  S
C2078      C2506   1.481       .  S
C2079      C2519   1.481       .  S
C2080      C2529   1.481       .  S
O2081     Cu2089   2.007       .  S
O2081      C3019   1.278       .  A
O2082     Cu2089   2.008       .  S
O2082      C3020   1.277       .  A
O2083      C3021   1.278       .  A
O2084     Cu2089   2.008       .  S
O2084      C3022   1.278       .  A
O2085     Cu2090   2.008       .  S
O2085      C2094   1.278       .  A
O2086      C2093   1.278       .  A
O2087     Cu2090   2.009       .  S
O2087      C2092   1.278       .  A
O2088     Cu2090   2.008       .  S
O2088      C2091   1.278       .  A
Cu2089    Cu3018   2.372       .  S
Cu2090    Cu3017   2.372   1_545  S
C2091      O3009   1.278   1_545  A
C2091      C2496   1.480       .  S
C2092      O3010   1.277   1_545  A
C2092      C2149   1.467       .  S
C2093      O3011   1.278   1_545  A
C2093      C2476   1.481       .  S
C2094      O3012   1.278   1_545  A
C2094      C2486   1.481       .  S
O2095     Cu2103   2.008       .  S
O2095      C2105   1.278       .  A
O2096     Cu2103   2.006       .  S
O2096      C2106   1.277       .  A
O2097      C2107   1.278       .  A
O2098     Cu2103   2.008       .  S
O2098      C2108   1.279       .  A
O2099     Cu2104   2.009       .  S
O2099      C2108   1.278       .  A
O2100      C2107   1.279       .  A
O2101     Cu2104   2.008       .  S
O2101      C2106   1.277       .  A
O2102     Cu2104   2.009       .  S
O2102      C2105   1.278       .  A
Cu2103    Cu2104   2.372       .  S
C2105      C2466   1.481       .  S
C2106      C2163   1.466       .  S
C2107      C2446   1.481       .  S
C2108      C2456   1.481       .  S
O2109     Cu2117   2.009       .  S
O2109      C3047   1.278       .  A
O2110     Cu2117   2.007       .  S
O2110      C3048   1.277       .  A
O2111     Cu2117   2.009       .  S
O2111      C3049   1.278       .  A
O2112     Cu2117   2.008       .  S
O2112      C3050   1.278       .  A
O2113     Cu2118   2.008       .  S
O2113      C2122   1.278       .  A
O2114     Cu2118   2.008       .  S
O2114      C2121   1.278       .  A
O2115     Cu2118   2.008       .  S
O2115      C2120   1.277       .  A
O2116     Cu2118   2.009       .  S
O2116      C2119   1.278       .  A
Cu2117    Cu3046   2.372       .  S
Cu2118    Cu3045   2.372   1_545  S
C2119      O3037   1.278   1_545  A
C2119      C2436   1.482       .  S
C2120      O3038   1.277   1_545  A
C2120      C2175   1.466       .  S
C2121      O3039   1.278   1_545  A
C2121      C2489   1.481       .  S
C2122      O3040   1.278   1_545  A
C2122      C2479   1.481       .  S
O2123     Cu2131   2.008       .  S
O2123      C2133   1.277       .  A
O2124     Cu2131   2.009       .  S
O2124      C2134   1.278       .  A
O2125     Cu2131   2.012       .  S
O2125      C2135   1.279       .  A
O2126     Cu2131   2.005       .  S
O2126      C2136   1.278       .  A
O2127     Cu2132   2.012       .  S
O2127      C2136   1.279       .  A
O2128     Cu2132   2.005       .  S
O2128      C2135   1.278       .  A
O2129     Cu2132   2.009       .  S
O2129      C2134   1.278       .  A
O2130     Cu2132   2.009       .  S
O2130      C2133   1.278       .  A
Cu2131    Cu2132   2.372       .  S
C2133      C2192   1.467       .  S
C2134      C2426   1.476       .  S
C2135      C2449   1.481       .  S
C2136      C2459   1.481       .  S
O2137      C2147   1.278       .  A
O2138     Cu2145   2.012       .  S
O2138      C2148   1.279       .  A
O2139     Cu2145   2.010       .  S
O2139      C2149   1.278       .  A
O2140     Cu2145   2.010       .  S
O2140      C2150   1.277       .  A
O2141     Cu2146   2.010       .  S
O2141      C3078   1.278       .  A
O2142     Cu2146   2.009       .  S
O2142      C3077   1.278       .  A
O2143     Cu2146   2.004       .  S
O2143      C3076   1.278       .  A
O2144      C3075   1.279       .  A
Cu2145    Cu3074   2.373   1_545  S
Cu2146    Cu3073   2.373       .  S
C2147      O3072   1.279   1_545  A
C2147      C2406   1.481       .  S
C2148      O3071   1.278   1_545  A
C2148      C2416   1.481       .  S
C2149      O3070   1.278   1_545  A
C2150      O3069   1.278   1_545  A
C2150      C2659   1.470       .  S
O2151      C2161   1.278       .  A
O2152     Cu2159   2.012       .  S
O2152      C2162   1.279       .  A
O2153     Cu2159   2.007       .  S
O2153      C2163   1.277       .  A
O2154     Cu2159   2.006       .  S
O2154      C2164   1.277       .  A
O2155     Cu2160   2.007       .  S
O2155      C2164   1.277       .  A
O2156     Cu2160   2.007       .  S
O2156      C2163   1.277       .  A
O2157     Cu2160   2.005       .  S
O2157      C2162   1.278       .  A
O2158      C2161   1.279       .  A
Cu2159    Cu2160   2.373       .  S
C2161      C2386   1.481       .  S
C2162      C2396   1.481       .  S
C2164      C2629   1.470       .  S
O2165     Cu2173   2.007       .  S
O2165      C2175   1.277       .  A
O2166     Cu2173   2.005       .  S
O2166      C2176   1.277       .  A
O2167     Cu2173   2.013       .  S
O2167      C2177   1.279       .  A
O2168     Cu2173   2.005       .  S
O2168      C2178   1.278       .  A
O2169     Cu2174   2.012       .  S
O2169      C3106   1.279       .  A
O2170     Cu2174   2.005       .  S
O2170      C3105   1.278       .  A
O2171     Cu2174   2.005       .  S
O2171      C3104   1.277       .  A
O2172     Cu2174   2.006       .  S
O2172      C3103   1.277       .  A
Cu2173    Cu3102   2.373   1_545  S
Cu2174    Cu3101   2.373       .  S
C2175      O3100   1.277   1_545  A
C2176      O3099   1.277   1_545  A
C2176      C2619   1.468       .  S
C2177      O3098   1.278   1_545  A
C2177      C2409   1.481       .  S
C2178      O3097   1.279   1_545  A
C2178      C2419   1.481       .  S
O2179     Cu2187   2.012       .  S
O2179      C2189   1.279       .  A
O2180     Cu2187   2.005       .  S
O2180      C2190   1.278       .  A
O2181     Cu2187   2.008       .  S
O2181      C2191   1.277       .  A
O2182     Cu2187   2.009       .  S
O2182      C2192   1.278       .  A
O2183     Cu2188   2.009       .  S
O2183      C2192   1.278       .  A
O2184     Cu2188   2.009       .  S
O2184      C2191   1.278       .  A
O2185     Cu2188   2.012       .  S
O2185      C2190   1.279       .  A
O2186     Cu2188   2.005       .  S
O2186      C2189   1.278       .  A
Cu2187    Cu2188   2.373       .  S
C2189      C2399   1.481       .  S
C2190      C2389   1.481       .  S
C2191      C2589   1.471       .  S
O2193     Cu2201   2.008       .  S
O2193      C2203   1.277       .  A
O2194     Cu2201   2.007       .  S
O2194      C2204   1.278       .  A
O2195      C2205   1.278       .  A
O2196     Cu2201   2.008       .  S
O2196      C2206   1.278       .  A
O2197     Cu2202   2.009       .  S
O2197      C3134   1.278   1_545  A
O2198      C3133   1.278   1_545  A
O2199     Cu2202   2.007       .  S
O2199      C3132   1.278   1_545  A
O2200     Cu2202   2.007       .  S
O2200      C3131   1.277   1_545  A
Cu2201    Cu3130   2.372       .  S
Cu2202    Cu3129   2.372   1_545  S
C2203      O3128   1.277       .  A
C2204      O3127   1.278       .  A
C2204      C3427   1.480       .  S
C2205      O3126   1.278       .  A
C2205      C2366   1.481       .  S
C2206      O3125   1.278       .  A
C2206      C2379   1.481       .  S
O2207     Cu2215   2.008       .  S
O2207      C2217   1.277       .  A
O2208     Cu2215   2.008       .  S
O2208      C2218   1.278       .  A
O2209      C2219   1.278       .  A
O2210     Cu2215   2.009       .  S
O2210      C2220   1.278       .  A
O2211     Cu2216   2.008       .  S
O2211      C2220   1.278       .  A
O2212      C2219   1.278       .  A
O2213     Cu2216   2.009       .  S
O2213      C2218   1.278       .  A
O2214     Cu2216   2.008       .  S
O2214      C2217   1.277       .  A
Cu2215    Cu2216   2.372       .  S
C2218      C2469   1.481       .  S
C2219      C2346   1.481       .  S
C2220      C2356   1.481       .  S
O2221     Cu2229   2.008       .  S
O2221      C2231   1.278       .  A
O2222     Cu2229   2.008       .  S
O2222      C2232   1.278       .  A
O2223     Cu2229   2.010       .  S
O2223      C2233   1.279       .  A
O2224     Cu2229   2.009       .  S
O2224      C2234   1.278       .  A
O2225     Cu2230   2.008       .  S
O2225      C3162   1.277   1_545  A
O2226     Cu2230   2.010       .  S
O2226      C3161   1.279       .  A
O2227     Cu2230   2.009       .  S
O2227      C3160   1.278   1_545  A
O2228     Cu2230   2.008       .  S
O2228      C3159   1.278   1_545  A
Cu2229    Cu3158   2.372       .  S
Cu2230    Cu3157   2.372   1_545  S
C2231      O3156   1.278       .  A
C2231      C2376   1.481       .  S
C2232      O3155   1.278       .  A
C2232      C2369   1.481       .  S
C2233      O3154   1.278       .  A
C2233      C3367   1.482       .  S
C2234      O3153   1.277       .  A
O2235     Cu2243   2.009       .  S
O2235      C2245   1.278       .  A
O2236     Cu2243   2.009       .  S
O2236      C2246   1.278       .  A
O2237     Cu2243   2.006       .  S
O2237      C2247   1.278       .  A
O2238     Cu2243   2.011       .  S
O2238      C2248   1.279       .  A
O2239     Cu2244   2.006       .  S
O2239      C2248   1.278       .  A
O2240     Cu2244   2.011       .  S
O2240      C2247   1.279       .  A
O2241     Cu2244   2.008       .  S
O2241      C2246   1.278       .  A
O2242     Cu2244   2.009       .  S
O2242      C2245   1.277       .  A
Cu2243    Cu2244   2.373       .  S
C2246      C2429   1.476       .  S
C2247      C2349   1.481       .  S
C2248      C2359   1.481       .  S
O2249     Cu3185   2.008       .  S
O2249      C2259   1.278       .  A
O2250     Cu2257   2.008       .  S
O2250      C2260   1.278       .  A
O2251     Cu2257   2.006       .  S
O2251      C2261   1.277       .  A
O2252     Cu2257   2.007       .  S
O2252      C2262   1.278       .  A
O2253     Cu3186   2.006       .  S
O2254     Cu3186   2.006       .  S
O2255     Cu3186   2.008       .  S
O2256     Cu2258   2.008       .  S
Cu2257     O3177   2.009   1_545  S
Cu2258     O3181   2.006       .  S
Cu2258     O3182   2.006       .  S
Cu2258     O3183   2.008       .  S
C2259      C2329   1.481       .  S
C2260      C2336   1.481       .  S
C2262      C2579   1.480       .  S
O2263     Cu2271   2.008       .  S
O2264     Cu2271   2.009       .  S
O2265     Cu2271   2.008       .  S
O2266     Cu2271   2.009       .  S
O2267     Cu2272   2.008       .  S
O2267      C2276   1.278       .  A
O2268     Cu2272   2.008       .  S
O2268      C2275   1.278       .  A
O2269     Cu2272   2.010       .  S
O2269      C2274   1.279       .  A
O2270     Cu2272   2.009       .  S
O2270      C2273   1.278       .  A
C2274      C2549   1.482       .  S
C2275      C2339   1.481       .  S
C2276      C2326   1.481       .  S
O2277     Cu2285   2.010       .  S
O2277      C2287   1.278       .  A
O2278     Cu2285   2.010       .  S
O2278      C3216   1.279       .  A
O2279     Cu2285   2.008       .  S
O2279      C2289   1.278       .  A
O2280     Cu3213   2.009       .  S
O2280      C2290   1.278       .  A
O2281     Cu2286   2.008       .  S
O2281      C2290   1.278       .  A
O2282     Cu3214   2.008       .  S
O2282      C2289   1.278       .  A
O2283     Cu2286   2.010       .  S
O2283      C2288   1.279       .  A
O2284     Cu2286   2.009       .  S
O2284      C3215   1.277       .  A
Cu2285     O3208   2.008       .  S
Cu2285    Cu3214   2.372       .  S
Cu2286     O3210   2.009   1_545  S
Cu2286    Cu3213   2.372       .  S
C2287      O3212   1.278       .  A
C2287      C2823   1.467       .  S
C2288      O3206   1.279       .  A
C2288      C2539   1.483       .  S
C2289      C2306   1.481       .  S
C2290      C2316   1.481       .  S
O2291     Cu2299   2.007       .  S
O2291      C2301   1.278       .  A
O2292     Cu2299   2.008       .  S
O2292      C2302   1.277       .  A
O2293     Cu2299   2.008       .  S
O2293      C2303   1.278       .  A
O2294     Cu2299   2.008       .  S
O2294      C2304   1.278       .  A
O2295     Cu2300   2.008       .  S
O2295      C2304   1.278       .  A
O2296     Cu2300   2.009       .  S
O2296      C2303   1.278       .  A
O2297     Cu2300   2.008       .  S
O2297      C2302   1.277       .  A
O2298     Cu2300   2.008       .  S
O2298      C2301   1.278       .  A
Cu2299    Cu2300   2.372       .  S
C2301      C2509   1.480       .  S
C2303      C2309   1.481       .  S
C2304      C2319   1.481       .  S
C2305      C2306   1.406       .  A
C2305      C2310   1.398       .  A
C2305      H2311   1.083       .  S
C2306      C2307   1.405       .  A
C2307      C2308   1.397       .  A
C2307      H2312   1.083       .  S
C2308      C2309   1.406       .  A
C2308      H2313   1.083       .  S
C2309      C2310   1.406       .  A
C2310      H2314   1.083       .  S
C2315      C2316   1.405       .  A
C2315      C2320   1.397       .  A
C2315      H2321   1.083       .  S
C2316      C2317   1.406       .  A
C2317      C2318   1.398       .  A
C2317      H2322   1.083       .  S
C2318      C2319   1.406       .  A
C2318      H2323   1.083       .  S
C2319      C2320   1.405       .  A
C2320      H2324   1.083       .  S
C2325      C2326   1.406       .  A
C2325      C2330   1.398       .  A
C2325      H2331   1.083       .  S
C2327      C2328   1.398       .  A
C2327      H2332   1.083       .  S
C2328      H2333   1.083       .  S
C2329      C2330   1.406       .  A
C2330      H2334   1.083       .  S
C2335      C2340   1.398       .  A
C2335      H2341   1.083       .  S
C2336      C2337   1.406       .  A
C2337      C2338   1.398       .  A
C2337      H2342   1.083       .  S
C2338      C2339   1.406       .  A
C2338      H2343   1.083       .  S
C2340      H2344   1.083       .  S
C2345      C2346   1.405       .  A
C2345      C2350   1.398       .  A
C2345      H2351   1.083       .  S
C2346      C2347   1.406       .  A
C2347      C2348   1.398       .  A
C2347      H2352   1.083       .  S
C2348      C2349   1.406       .  A
C2348      H2353   1.083       .  S
C2349      C2350   1.406       .  A
C2350      H2354   1.083       .  S
C2355      C2356   1.405       .  A
C2355      C2360   1.397       .  A
C2355      H2361   1.083       .  S
C2356      C2357   1.406       .  A
C2357      C2358   1.398       .  A
C2357      H2362   1.083       .  S
C2358      C2359   1.406       .  A
C2358      H2363   1.083       .  S
C2359      C2360   1.406       .  A
C2360      H2364   1.083       .  S
C2365      C2366   1.406       .  A
C2365      C2370   1.398       .  A
C2365      H2371   1.083       .  S
C2366      C3295   1.406       .  A
C2367      C3294   1.406   1_545  A
C2367      C2368   1.398       .  A
C2367      H2372   1.083       .  S
C2368      C3297   1.405   1_545  A
C2368      H2373   1.083       .  S
C2369      C3296   1.405       .  A
C2369      C2370   1.406       .  A
C2370      H2374   1.083       .  S
C2375      C2376   1.405       .  A
C2375      C2380   1.397       .  A
C2375      H2381   1.083       .  S
C2376      C3305   1.406       .  A
C2377      C3304   1.406   1_545  A
C2377      C2378   1.398       .  A
C2377      H2382   1.083       .  S
C2378      C3307   1.406   1_545  A
C2378      H2383   1.083       .  S
C2379      C3306   1.406       .  A
C2379      C2380   1.406       .  A
C2380      H2384   1.083       .  S
C2385      C2386   1.405       .  A
C2385      C2390   1.398       .  A
C2385      H2391   1.083       .  S
C2386      C2387   1.406       .  A
C2387      C2388   1.397       .  A
C2387      H2392   1.083       .  S
C2388      C2389   1.405       .  A
C2388      H2393   1.083       .  S
C2389      C2390   1.406       .  A
C2390      H2394   1.083       .  S
C2395      C2396   1.405       .  A
C2395      C2400   1.398       .  A
C2395      H2401   1.083       .  S
C2396      C2397   1.406       .  A
C2397      C2398   1.397       .  A
C2397      H2402   1.083       .  S
C2398      C2399   1.405       .  A
C2398      H2403   1.083       .  S
C2399      C2400   1.406       .  A
C2400      H2404   1.083       .  S
C2405      C3334   1.405       .  A
C2405      C2410   1.398       .  A
C2405      H2411   1.083       .  S
C2406      C3333   1.405   1_545  A
C2406      C2407   1.406       .  A
C2407      C2408   1.398       .  A
C2407      H2412   1.083       .  S
C2408      C2409   1.405       .  A
C2408      H2413   1.083       .  S
C2409      C3338   1.406   1_545  A
C2410      C3337   1.406       .  A
C2410      H2414   1.083       .  S
C2415      C3344   1.406       .  A
C2415      C2420   1.398       .  A
C2415      H2421   1.083       .  S
C2416      C3343   1.406   1_545  A
C2416      C2417   1.405       .  A
C2417      C2418   1.398       .  A
C2417      H2422   1.083       .  S
C2418      C2419   1.406       .  A
C2418      H2423   1.083       .  S
C2419      C3348   1.405   1_545  A
C2420      C3347   1.405       .  A
C2420      H2424   1.083       .  S
C2425      C2426   1.405       .  A
C2425      C2430   1.398       .  A
C2425      H2431   1.083       .  S
C2426      C2427   1.405       .  A
C2427      C2428   1.398       .  A
C2427      H2432   1.083       .  S
C2428      C2429   1.404   1_554  A
C2428      H2433   1.083   1_554  S
C2429      C2430   1.405   1_556  A
C2430      H2434   1.083   1_554  S
C2435      C3364   1.406       .  A
C2435      C2440   1.398       .  A
C2435      H2441   1.083       .  S
C2436      C3363   1.406   1_545  A
C2436      C2437   1.406       .  A
C2437      C2438   1.398       .  A
C2437      H2442   1.083       .  S
C2438      C2439   1.406   1_554  A
C2438      H2443   1.083   1_554  S
C2439      C3161   1.482       .  S
C2439      C3368   1.406   1_546  A
C2440      C3367   1.406   1_554  A
C2440      H2444   1.083   1_554  S
C2445      C2446   1.406       .  A
C2445      C2450   1.399       .  A
C2445      H2451   1.083       .  S
C2446      C2447   1.405       .  A
C2447      C2448   1.396       .  A
C2447      H2452   1.083       .  S
C2448      C2449   1.405       .  A
C2448      H2453   1.083       .  S
C2449      C2450   1.406       .  A
C2450      H2454   1.083       .  S
C2455      C2456   1.405       .  A
C2455      C2460   1.396       .  A
C2455      H2461   1.083       .  S
C2456      C2457   1.406       .  A
C2457      C2458   1.399       .  A
C2457      H2462   1.083       .  S
C2458      C2459   1.406       .  A
C2458      H2463   1.083       .  S
C2459      C2460   1.405       .  A
C2460      H2464   1.083       .  S
C2465      C2466   1.406       .  A
C2465      C2470   1.398       .  A
C2465      H2471   1.083       .  S
C2467      C2468   1.398       .  A
C2467      H2472   1.083       .  S
C2468      H2473   1.083   1_554  S
C2469      C2470   1.406   1_556  A
C2470      H2474   1.083   1_554  S
C2475      C2476   1.406       .  A
C2475      C2480   1.398       .  A
C2475      H2481   1.083       .  S
C2476      C3405   1.405   1_545  A
C2477      C3404   1.405       .  A
C2477      C2478   1.398       .  A
C2477      H2482   1.083       .  S
C2478      C3407   1.406       .  A
C2478      H2483   1.083       .  S
C2479      C3406   1.406   1_545  A
C2479      C2480   1.406       .  A
C2480      H2484   1.083       .  S
C2485      C2486   1.406       .  A
C2485      C2490   1.398       .  A
C2485      H2491   1.083       .  S
C2486      C3415   1.406   1_545  A
C2487      C3414   1.406       .  A
C2487      C2488   1.398       .  A
C2487      H2492   1.083       .  S
C2488      C3417   1.406       .  A
C2488      H2493   1.083       .  S
C2489      C3416   1.406   1_545  A
C2489      C2490   1.406       .  A
C2490      H2494   1.083       .  S
C2495      C2496   1.405       .  A
C2495      C2500   1.398       .  A
C2495      H2501   1.083       .  S
C2497      C2498   1.397       .  A
C2497      H2502   1.083       .  S
C2498      H2503   1.083   1_554  S
C2499      C3132   1.480   1_545  S
C2499      C2500   1.406   1_556  A
C2500      H2504   1.083   1_554  S
C2505      C2506   1.406       .  A
C2505      C2510   1.398       .  A
C2505      H2511   1.083       .  S
C2506      C2507   1.406       .  A
C2507      C2508   1.398       .  A
C2507      H2512   1.083       .  S
C2508      C2509   1.406       .  A
C2508      H2513   1.083       .  S
C2509      C2510   1.406       .  A
C2510      H2514   1.083       .  S
C2515      C2516   1.406       .  A
C2515      C2520   1.398       .  A
C2515      H2521   1.083       .  S
C2516      C2517   1.406       .  A
C2517      C2518   1.398       .  A
C2517      H2522   1.083       .  S
C2518      C2519   1.406       .  A
C2518      H2523   1.083       .  S
C2519      C2520   1.406       .  A
C2520      H2524   1.083       .  S
C2525      C2526   1.406       .  A
C2525      C2530   1.398       .  A
C2525      H2531   1.083       .  S
C2526      C2527   1.406       .  A
C2527      C2528   1.398       .  A
C2527      H2532   1.083       .  S
C2528      C2529   1.406       .  A
C2528      H2533   1.083       .  S
C2529      C2530   1.406       .  A
C2530      H2534   1.083       .  S
C2535      C3464   1.406       .  A
C2535      C2540   1.399       .  A
C2535      H2541   1.083       .  S
C2536      C3463   1.406       .  A
C2536      C2537   1.406   1_545  A
C2537      C2538   1.398   1_565  A
C2537      H2542   1.083       .  S
C2538      C2539   1.406       .  A
C2538      H2543   1.083   1_545  S
C2539      C3468   1.406       .  A
C2540      C3467   1.406       .  A
C2540      H2544   1.083       .  S
C2545      C2546   1.406       .  A
C2545      C2550   1.398       .  A
C2545      H2551   1.083       .  S
C2547      C2548   1.398       .  A
C2547      H2552   1.083       .  S
C2548      H2553   1.083       .  S
C2549      C2550   1.406       .  A
C2550      H2554   1.083       .  S
C2555      C2560   1.398       .  A
C2555      H2561   1.083       .  S
C2556      C2557   1.406       .  A
C2557      C2558   1.398       .  A
C2557      H2562   1.083       .  S
C2558      C2559   1.406       .  A
C2558      H2563   1.083       .  S
C2560      H2564   1.083       .  S
C2565      C2570   1.398       .  A
C2565      H2571   1.083       .  S
C2566      C2567   1.406       .  A
C2567      C2568   1.398       .  A
C2567      H2572   1.083       .  S
C2568      C2569   1.406       .  A
C2568      H2573   1.083       .  S
C2570      H2574   1.083       .  S
C2575      C2580   1.397       .  A
C2575      H2581   1.083       .  S
C2576      C3505   1.405       .  A
C2577      C3504   1.405       .  A
C2577      C2578   1.397       .  A
C2577      H2582   1.083       .  S
C2578      C3507   1.405       .  A
C2578      H2583   1.083       .  S
C2579      C3506   1.405       .  A
C2580      H2584   1.083       .  S
C2585      C2586   1.403       .  A
C2585      C2590   1.398       .  A
C2585      H2591   1.083       .  S
C2586      C2587   1.403       .  A
C2587      C2588   1.398       .  A
C2587      H2592   1.083       .  S
C2588      C2589   1.403       .  A
C2588      H2593   1.084       .  S
C2589      C2590   1.403       .  A
C2590      H2594   1.084       .  S
C2595      C2596   1.405       .  A
C2595      C2600   1.398       .  A
C2595      H2601   1.083       .  S
C2596      C2597   1.406       .  A
C2597      C2598   1.398       .  A
C2597      H2602   1.083       .  S
C2598      C2599   1.405       .  A
C2598      H2603   1.083       .  S
C2599      C2600   1.406       .  A
C2600      H2604   1.083       .  S
C2605      C2606   1.405       .  A
C2605      C2610   1.398       .  A
C2605      H2611   1.083       .  S
C2606      C2607   1.406       .  A
C2607      C2608   1.398       .  A
C2607      H2612   1.083       .  S
C2608      C2609   1.405       .  A
C2608      H2613   1.083       .  S
C2609      C2610   1.406       .  A
C2610      H2614   1.083       .  S
C2615      C3544   1.403       .  A
C2615      C2620   1.397       .  A
C2615      H2621   1.083       .  S
C2616      C3543   1.403   1_545  A
C2616      C2617   1.403       .  A
C2617      C2618   1.397       .  A
C2617      H2622   1.083       .  S
C2618      C2619   1.403       .  A
C2618      H2623   1.084       .  S
C2619      C3548   1.403   1_545  A
C2620      C3547   1.403       .  A
C2620      H2624   1.084       .  S
C2625      C2626   1.403       .  A
C2625      C2630   1.398       .  A
C2625      H2631   1.084       .  S
C2627      C2628   1.398       .  A
C2627      H2632   1.084       .  S
C2628      H2633   1.083       .  S
C2629      C2630   1.403       .  A
C2630      H2634   1.083       .  S
C2635      C2640   1.398       .  A
C2635      H2641   1.083       .  S
C2636      C2637   1.406       .  A
C2637      C2638   1.398       .  A
C2637      H2642   1.083       .  S
C2638      C2639   1.405       .  A
C2638      H2643   1.083       .  S
C2640      H2644   1.083       .  S
C2645      C2646   1.406       .  A
C2645      C2650   1.398       .  A
C2645      H2651   1.083       .  S
C2647      C2648   1.398       .  A
C2647      H2652   1.083       .  S
C2648      H2653   1.083       .  S
C2649      C2650   1.405       .  A
C2650      H2654   1.083       .  S
C2655      C2660   1.399       .  A
C2655      H2661   1.083       .  S
C2656      C3585   1.405   1_545  A
C2657      C3584   1.405       .  A
C2657      C2658   1.399       .  A
C2657      H2662   1.083       .  S
C2658      C3587   1.403       .  A
C2658      H2663   1.084       .  S
C2659      C3586   1.403   1_545  A
C2660      H2664   1.084       .  S
C2665      C2666   1.406       .  A
C2665      C2670   1.397       .  A
C2665      H2671   1.083       .  S
C2666      C2667   1.406       .  A
C2667      C2668   1.398       .  A
C2667      H2672   1.083       .  S
C2668      C2669   1.406       .  A
C2668      H2673   1.083       .  S
C2669      C2670   1.406       .  A
C2670      H2674   1.083       .  S
C2675      C2676   1.406       .  A
C2675      C2680   1.397       .  A
C2675      H2681   1.083       .  S
C2676      C2677   1.406       .  A
C2677      C2678   1.398       .  A
C2677      H2682   1.083       .  S
C2678      C2679   1.406       .  A
C2678      H2683   1.083       .  S
C2679      C2680   1.406       .  A
C2680      H2684   1.083       .  S
C2685      C3614   1.405   1_545  A
C2685      C2690   1.398       .  A
C2685      H2691   1.083       .  S
C2686      C3613   1.405       .  A
C2686      C2687   1.406       .  A
C2687      C2688   1.398       .  A
C2687      H2692   1.083       .  S
C2688      C2689   1.405       .  A
C2688      H2693   1.083       .  S
C2689      C3618   1.406       .  A
C2690      C3617   1.406   1_545  A
C2690      H2694   1.083       .  S
C2695      C3624   1.406   1_545  A
C2695      C2700   1.398       .  A
C2695      H2701   1.083       .  S
C2696      C3623   1.406       .  A
C2696      C2697   1.405       .  A
C2697      C2698   1.398       .  A
C2697      H2702   1.083       .  S
C2698      C2699   1.406       .  A
C2698      H2703   1.083       .  S
C2699      C3628   1.405       .  A
C2700      C3627   1.405   1_545  A
C2700      H2704   1.083       .  S
C2705      C2706   1.402       .  A
C2705      C2710   1.399       .  A
C2705      H2711   1.084       .  S
C2706      C2707   1.402       .  A
C2707      C2708   1.399       .  A
C2707      H2712   1.084       .  S
C2708      C2709   1.405       .  A
C2708      H2713   1.083       .  S
C2709      C2710   1.405       .  A
C2710      H2714   1.083       .  S
C2715      C2716   1.406       .  A
C2715      C2720   1.397       .  A
C2715      H2721   1.083       .  S
C2716      C2717   1.406       .  A
C2717      C2718   1.399       .  A
C2717      H2722   1.083       .  S
C2718      C2719   1.406       .  A
C2718      H2723   1.083       .  S
C2719      C2720   1.405       .  A
C2720      H2724   1.083       .  S
C2725      C2726   1.406       .  A
C2725      C2730   1.399       .  A
C2725      H2731   1.083       .  S
C2726      C2727   1.405       .  A
C2727      C2728   1.397       .  A
C2727      H2732   1.083       .  S
C2728      C2729   1.406       .  A
C2728      H2733   1.083       .  S
C2729      C2730   1.406       .  A
C2730      H2734   1.083       .  S
C2735      C2736   1.403       .  A
C2735      C2740   1.398       .  A
C2735      H2741   1.083       .  S
C2736      C3665   1.403       .  A
C2737      C3664   1.403   1_545  A
C2737      C2738   1.398       .  A
C2737      H2742   1.083       .  S
C2738      C3667   1.403   1_545  A
C2738      H2743   1.083       .  S
C2739      C3666   1.403       .  A
C2739      C2740   1.403       .  A
C2740      H2744   1.083       .  S
C2745      C2746   1.403       .  A
C2745      C2750   1.398       .  A
C2745      H2751   1.084       .  S
C2747      C2748   1.398       .  A
C2747      H2752   1.084       .  S
C2748      C2749   1.403       .  A
C2748      H2753   1.083       .  S
C2750      H2754   1.083       .  S
C2755      C2760   1.398       .  A
C2755      H2761   1.083       .  S
C2756      C2757   1.406       .  A
C2757      C2758   1.398       .  A
C2757      H2762   1.083       .  S
C2758      C2759   1.405       .  A
C2758      H2763   1.083       .  S
C2760      H2764   1.083       .  S
C2765      C2766   1.405       .  A
C2765      C2770   1.398       .  A
C2765      H2771   1.083       .  S
C2767      C2768   1.398       .  A
C2767      H2772   1.083       .  S
C2768      H2773   1.083       .  S
C2769      C2770   1.406       .  A
C2770      H2774   1.083       .  S
C2775      C2780   1.399       .  A
C2775      H2781   1.083       .  S
C2776      C3705   1.403       .  A
C2777      C3704   1.403   1_545  A
C2777      C2778   1.398       .  A
C2777      H2782   1.083       .  S
C2778      C3707   1.403   1_545  A
C2778      H2783   1.083       .  S
C2779      C3706   1.403       .  A
C2780      H2784   1.083       .  S
O2785     Cu2793   2.009       .  S
O2785      C2795   1.278       .  A
O2787     Cu2793   2.004       .  S
O2789     Cu2794   2.006       .  S
O2789      C2798   1.278       .  A
O2790      C2797   1.279       .  A
O2791     Cu2794   2.006       .  S
O2791      C2796   1.277       .  A
C2796      C3189   1.465       .  S
O2799     Cu2807   2.010       .  S
O2799      C2809   1.278       .  A
O2800     Cu2807   2.008       .  S
O2800      C2810   1.278       .  A
O2801     Cu2807   2.005       .  S
O2801      C2811   1.278       .  A
O2802     Cu2807   2.013       .  S
O2802      C2812   1.279       .  A
O2803     Cu2808   2.004       .  S
O2804     Cu2808   2.012       .  S
O2805     Cu2808   2.008       .  S
O2806     Cu2808   2.008       .  S
C2809      C3674   1.471       .  S
C2811      C3697   1.481       .  S
C2812      C3687   1.481       .  S
O2813     Cu2821   2.009       .  S
O2813      C2823   1.278       .  A
O2814      C2824   1.277       .  A
O2815     Cu2821   2.013       .  S
O2815      C2825   1.279       .  A
O2816      C2826   1.278       .  A
O2817     Cu2822   2.013   1_565  S
O2817      C2826   1.279       .  A
O2818      C2825   1.278       .  A
O2819     Cu2822   2.007       .  S
O2819      C2824   1.277   1_545  A
O2820     Cu2822   2.009   1_565  S
C2824      C3664   1.469       .  S
C2825      C3654   1.481       .  S
C2826      C3647   1.481       .  S
O2827     Cu2835   2.007       .  S
O2827      C2837   1.278       .  A
O2828     Cu2835   2.011       .  S
O2828      C2838   1.279       .  A
O2829     Cu2835   2.008       .  S
O2829      C2839   1.278       .  A
O2830     Cu2835   2.008       .  S
O2830      C2840   1.277       .  A
O2831     Cu2836   2.008       .  S
O2831      C2840   1.277       .  A
O2832     Cu2836   2.008       .  S
O2832      C2839   1.278       .  A
O2833     Cu2836   2.006       .  S
O2833      C2838   1.278       .  A
O2834     Cu2836   2.011       .  S
O2834      C2837   1.279       .  A
Cu2835    Cu2836   2.372       .  S
C2837      C3657   1.481       .  S
C2838      C3644   1.481       .  S
C2839      C3634   1.477       .  S
C2840      C3230   1.466       .  S
O2841     Cu2849   2.009       .  S
O2841      C2851   1.278       .  A
O2842     Cu2849   2.009       .  S
O2842      C2852   1.278       .  A
O2843      C2853   1.278       .  A
O2844     Cu2849   2.013       .  S
O2844      C2854   1.279       .  A
O2845     Cu2850   2.004       .  S
O2847     Cu2850   2.008       .  S
O2848     Cu2850   2.008       .  S
C2851      C3707   1.471       .  S
C2852      C3131   1.466       .  S
C2853      C3614   1.481       .  S
C2854      C3624   1.481       .  S
O2855     Cu2863   2.008       .  S
O2855      C2865   1.277       .  A
O2856     Cu2863   2.009       .  S
O2856      C2866   1.278       .  A
O2857      C2867   1.278       .  A
O2858     Cu2863   2.011       .  S
O2858      C2868   1.279       .  A
O2859     Cu2864   2.005       .  S
O2859      C2868   1.278       .  A
O2860      C2867   1.279       .  A
O2861     Cu2864   2.008       .  S
O2861      C2866   1.277       .  A
O2862     Cu2864   2.008       .  S
O2862      C2865   1.277       .  A
Cu2863    Cu2864   2.373       .  S
C2865      C3677   1.470       .  S
C2866      C3145   1.466       .  S
C2867      C3594   1.481       .  S
C2868      C3604   1.481       .  S
O2869     Cu2877   2.012       .  S
O2869      C2879   1.279       .  A
O2870     Cu2877   2.005       .  S
O2870      C2880   1.278       .  A
O2871     Cu2877   2.007       .  S
O2871      C2881   1.277       .  A
O2872     Cu2877   2.009       .  S
O2872      C2882   1.278       .  A
O2873     Cu2878   2.008       .  S
O2874     Cu2878   2.006       .  S
O2875     Cu2878   2.012       .  S
O2876     Cu2878   2.005       .  S
C2879      C3617   1.481       .  S
C2880      C3627   1.481       .  S
C2881      C3667   1.469       .  S
C2882      C3162   1.467       .  S
O2883     Cu2891   2.007       .  S
O2883      C2893   1.277       .  A
O2884     Cu2891   2.008       .  S
O2884      C2894   1.277       .  A
O2885     Cu2891   2.012       .  S
O2885      C2895   1.279       .  A
O2886     Cu2891   2.005       .  S
O2886      C2896   1.278       .  A
O2887     Cu2892   2.011       .  S
O2887      C2896   1.279       .  A
O2888     Cu2892   2.005       .  S
O2888      C2895   1.278       .  A
O2889     Cu2892   2.009       .  S
O2889      C2894   1.278       .  A
O2890     Cu2892   2.008       .  S
O2890      C2893   1.277       .  A
Cu2891    Cu2892   2.374       .  S
C2893      C3637   1.465       .  S
C2894      C3173   1.466       .  S
C2895      C3597   1.481       .  S
C2896      C3607   1.481       .  S
O2897     Cu2905   2.010       .  S
O2898     Cu2905   2.007       .  S
O2899     Cu2905   2.005       .  S
O2901      C2910   1.278       .  A
O2902     Cu2906   2.012       .  S
O2902      C2909   1.279       .  A
O2903     Cu2906   2.008       .  S
O2903      C2908   1.277       .  A
O2904     Cu2906   2.011       .  S
O2904      C2907   1.278       .  A
C2907      C3584   1.475       .  S
C2908      C2964   1.466       .  S
C2909      C3577   1.481       .  S
C2910      C3564   1.481       .  S
O2911     Cu2919   2.007       .  S
O2912     Cu2919   2.007       .  S
O2913     Cu2919   2.012       .  S
O2914     Cu2919   2.005       .  S
O2915     Cu2920   2.012       .  S
O2915      C2924   1.279       .  A
O2916     Cu2920   2.005       .  S
O2916      C2923   1.278       .  A
O2917     Cu2920   2.008       .  S
O2917      C2922   1.277       .  A
O2918     Cu2920   2.007       .  S
O2918      C2921   1.277       .  A
C2921      C2977   1.466       .  S
C2922      C3554   1.470       .  S
C2923      C3574   1.481       .  S
C2924      C3567   1.481       .  S
O2925     Cu2933   2.012       .  S
O2925      C2935   1.279       .  A
O2926      C2936   1.278       .  A
O2927     Cu2933   2.005       .  S
O2927      C2937   1.277       .  A
O2928     Cu2933   2.007       .  S
O2928      C2938   1.277       .  A
O2929     Cu2934   2.008       .  S
O2929      C2938   1.277       .  A
O2930     Cu2934   2.006       .  S
O2930      C2937   1.277       .  A
O2931      C2936   1.279       .  A
O2932     Cu2934   2.005       .  S
O2932      C2935   1.278       .  A
Cu2933    Cu2934   2.373       .  S
C2935      C3534   1.481       .  S
C2936      C3524   1.481       .  S
C2937      C3544   1.468       .  S
C2938      C2991   1.466       .  S
O2939     Cu2947   2.005       .  S
O2939      C2949   1.278       .  A
O2940     Cu2947   2.013       .  S
O2940      C2950   1.279       .  A
O2941     Cu2947   2.009       .  S
O2941      C2951   1.278       .  A
O2942     Cu2947   2.009       .  S
O2942      C2952   1.278       .  A
O2943     Cu2948   2.009       .  S
O2943      C2952   1.278       .  A
O2944     Cu2948   2.009       .  S
O2944      C2951   1.278       .  A
O2945     Cu2948   2.005       .  S
O2945      C2950   1.278       .  A
O2946     Cu2948   2.012       .  S
O2946      C2949   1.279       .  A
Cu2947    Cu2948   2.373       .  S
C2949      C3537   1.481       .  S
C2950      C3527   1.481       .  S
C2951      C3005   1.467       .  S
C2952      C3514   1.471       .  S
O2953     Cu2961   2.007       .  S
O2954     Cu2961   2.007       .  S
O2956     Cu2961   2.009       .  S
O2957     Cu2962   2.008       .  S
O2957      C2966   1.278       .  A
O2958      C2965   1.278       .  A
O2959     Cu2962   2.007       .  S
O2959      C2964   1.277       .  A
O2960     Cu2962   2.006       .  S
O2960      C2963   1.278       .  A
C2963      C3504   1.480       .  S
C2965      C3484   1.481       .  S
C2966      C3494   1.481       .  S
O2967     Cu2975   2.008       .  S
O2968     Cu2975   2.009       .  S
O2969     Cu2975   2.008       .  S
O2970     Cu2975   2.008       .  S
O2971     Cu2976   2.009       .  S
O2971      C2980   1.278       .  A
O2972     Cu2976   2.008       .  S
O2972      C2979   1.278       .  A
O2973     Cu2976   2.009       .  S
O2973      C2978   1.278       .  A
O2974     Cu2976   2.008       .  S
O2974      C2977   1.277       .  A
C2978      C3474   1.482       .  S
C2979      C3487   1.481       .  S
C2980      C3497   1.481       .  S
O2981     Cu2989   2.008       .  S
O2981      C2991   1.277       .  A
O2982     Cu2989   2.010       .  S
O2982      C2992   1.279       .  A
O2983     Cu2989   2.008       .  S
O2983      C2993   1.278       .  A
O2984      C2994   1.278       .  A
O2985      C2994   1.278       .  A
O2986     Cu2990   2.008       .  S
O2986      C2993   1.278       .  A
O2987     Cu2990   2.011       .  S
O2987      C2992   1.279       .  A
O2988     Cu2990   2.009       .  S
O2988      C2991   1.277       .  A
Cu2989    Cu2990   2.372       .  S
C2992      C3464   1.483       .  S
C2993      C3454   1.481       .  S
C2994      C3444   1.481       .  S
O2995     Cu3003   2.008       .  S
O2995      C3005   1.277       .  A
O2996     Cu3003   2.008       .  S
O2996      C3006   1.278       .  A
O2997     Cu3003   2.009       .  S
O2997      C3007   1.278       .  A
O2998     Cu3003   2.008       .  S
O2998      C3008   1.278       .  A
O2999     Cu3004   2.009       .  S
O2999      C3008   1.278       .  A
O3000     Cu3004   2.008       .  S
O3000      C3007   1.278       .  A
O3001     Cu3004   2.008       .  S
O3001      C3006   1.278       .  A
O3002     Cu3004   2.009       .  S
O3002      C3005   1.278       .  A
Cu3003    Cu3004   2.372       .  S
C3006      C3434   1.481       .  S
C3007      C3447   1.481       .  S
C3008      C3457   1.481       .  S
O3009     Cu3017   2.007       .  S
O3010     Cu3017   2.008       .  S
O3012     Cu3017   2.008       .  S
O3013     Cu3018   2.009       .  S
O3013      C3022   1.278       .  A
O3014      C3021   1.278       .  A
O3015     Cu3018   2.009       .  S
O3015      C3020   1.278       .  A
O3016     Cu3018   2.008       .  S
O3016      C3019   1.278       .  A
C3019      C3424   1.480       .  S
C3020      C3077   1.467       .  S
C3021      C3404   1.481       .  S
C3022      C3414   1.481       .  S
O3023     Cu3031   2.009       .  S
O3023      C3033   1.278       .  A
O3024     Cu3031   2.007       .  S
O3024      C3034   1.277       .  A
O3025      C3035   1.278       .  A
O3026     Cu3031   2.008       .  S
O3026      C3036   1.279       .  A
O3027     Cu3032   2.008       .  S
O3027      C3036   1.278       .  A
O3028      C3035   1.279       .  A
O3029     Cu3032   2.007       .  S
O3029      C3034   1.277       .  A
O3030     Cu3032   2.008       .  S
O3030      C3033   1.278       .  A
Cu3031    Cu3032   2.372       .  S
C3033      C3394   1.481       .  S
C3034      C3091   1.466       .  S
C3035      C3374   1.481       .  S
C3036      C3384   1.481       .  S
O3037     Cu3045   2.009       .  S
O3038     Cu3045   2.007       .  S
O3039     Cu3045   2.009       .  S
O3040     Cu3045   2.008       .  S
O3041     Cu3046   2.008       .  S
O3041      C3050   1.278       .  A
O3042     Cu3046   2.008       .  S
O3042      C3049   1.278       .  A
O3043     Cu3046   2.009       .  S
O3043      C3048   1.277       .  A
O3044     Cu3046   2.010       .  S
O3044      C3047   1.279       .  A
C3047      C3364   1.482       .  S
C3048      C3103   1.466       .  S
C3049      C3417   1.481       .  S
C3050      C3407   1.481       .  S
O3051     Cu3059   2.009       .  S
O3051      C3061   1.278       .  A
O3052     Cu3059   2.009       .  S
O3052      C3062   1.278       .  A
O3053     Cu3059   2.012       .  S
O3053      C3063   1.279       .  A
O3054     Cu3059   2.005       .  S
O3054      C3064   1.278       .  A
O3055     Cu3060   2.012       .  S
O3055      C3064   1.279       .  A
O3056     Cu3060   2.005       .  S
O3056      C3063   1.278       .  A
O3057     Cu3060   2.009       .  S
O3057      C3062   1.278       .  A
O3058     Cu3060   2.010       .  S
O3058      C3061   1.278       .  A
Cu3059    Cu3060   2.372       .  S
C3061      C3120   1.468       .  S
C3062      C3354   1.477       .  S
C3063      C3377   1.481       .  S
C3064      C3387   1.481       .  S
O3065      C3075   1.278       .  A
O3066     Cu3073   2.012       .  S
O3066      C3076   1.279       .  A
O3067     Cu3073   2.010       .  S
O3067      C3077   1.278       .  A
O3068     Cu3073   2.010       .  S
O3068      C3078   1.277       .  A
O3069     Cu3074   2.010       .  S
O3070     Cu3074   2.009       .  S
O3071     Cu3074   2.004       .  S
C3075      C3334   1.481       .  S
C3076      C3344   1.481       .  S
C3078      C3587   1.470       .  S
O3079      C3089   1.278       .  A
O3080     Cu3087   2.012       .  S
O3080      C3090   1.279       .  A
O3081     Cu3087   2.008       .  S
O3081      C3091   1.277       .  A
O3082     Cu3087   2.007       .  S
O3082      C3092   1.277       .  A
O3083     Cu3088   2.006       .  S
O3083      C3092   1.277       .  A
O3084     Cu3088   2.007       .  S
O3084      C3091   1.277       .  A
O3085     Cu3088   2.004       .  S
O3085      C3090   1.278       .  A
O3086      C3089   1.279       .  A
Cu3087    Cu3088   2.373       .  S
C3089      C3314   1.481       .  S
C3090      C3324   1.481       .  S
C3092      C3557   1.469       .  S
O3093     Cu3101   2.007       .  S
O3093      C3103   1.277       .  A
O3094     Cu3101   2.005       .  S
O3094      C3104   1.277       .  A
O3095     Cu3101   2.012       .  S
O3095      C3105   1.279       .  A
O3096     Cu3101   2.005       .  S
O3096      C3106   1.278       .  A
O3097     Cu3102   2.012       .  S
O3098     Cu3102   2.005       .  S
O3099     Cu3102   2.006       .  S
O3100     Cu3102   2.007       .  S
C3104      C3547   1.468       .  S
C3105      C3337   1.481       .  S
C3106      C3347   1.481       .  S
O3107     Cu3115   2.012       .  S
O3107      C3117   1.279       .  A
O3108     Cu3115   2.004       .  S
O3108      C3118   1.278       .  A
O3109     Cu3115   2.009       .  S
O3109      C3119   1.278       .  A
O3110     Cu3115   2.010       .  S
O3110      C3120   1.278       .  A
O3111     Cu3116   2.010       .  S
O3111      C3120   1.278       .  A
O3112     Cu3116   2.010       .  S
O3112      C3119   1.278       .  A
O3113     Cu3116   2.012       .  S
O3113      C3118   1.279       .  A
O3114     Cu3116   2.005       .  S
O3114      C3117   1.278       .  A
Cu3115    Cu3116   2.373       .  S
C3117      C3327   1.481       .  S
C3118      C3317   1.481       .  S
C3119      C3517   1.471       .  S
O3121     Cu3129   2.008       .  S
O3121      C3131   1.277       .  A
O3122     Cu3129   2.007       .  S
O3122      C3132   1.278       .  A
O3123      C3133   1.278       .  A
O3124     Cu3129   2.008       .  S
O3124      C3134   1.278       .  A
O3125     Cu3130   2.008       .  S
O3127     Cu3130   2.007       .  S
O3128     Cu3130   2.007       .  S
C3133      C3294   1.481       .  S
C3134      C3307   1.481       .  S
O3135     Cu3143   2.008       .  S
O3135      C3145   1.277       .  A
O3136     Cu3143   2.008       .  S
O3136      C3146   1.278       .  A
O3137      C3147   1.278       .  A
O3138     Cu3143   2.008       .  S
O3138      C3148   1.278       .  A
O3139     Cu3144   2.008       .  S
O3139      C3148   1.278       .  A
O3140      C3147   1.278       .  A
O3141     Cu3144   2.009       .  S
O3141      C3146   1.278       .  A
O3142     Cu3144   2.008       .  S
O3142      C3145   1.277       .  A
Cu3143    Cu3144   2.372       .  S
C3146      C3397   1.481       .  S
C3147      C3274   1.481       .  S
C3148      C3284   1.481       .  S
O3149     Cu3157   2.009       .  S
O3149      C3159   1.278       .  A
O3150     Cu3157   2.008       .  S
O3150      C3160   1.278       .  A
O3151     Cu3157   2.010       .  S
O3151      C3161   1.278   1_565  A
O3152     Cu3157   2.009       .  S
O3152      C3162   1.277       .  A
O3153     Cu3158   2.008       .  S
O3154     Cu3158   2.010       .  S
O3155     Cu3158   2.009       .  S
O3156     Cu3158   2.008       .  S
C3159      C3304   1.481       .  S
C3160      C3297   1.481       .  S
O3163     Cu3171   2.008       .  S
O3163      C3173   1.277       .  A
O3164     Cu3171   2.009       .  S
O3164      C3174   1.278       .  A
O3165     Cu3171   2.005       .  S
O3165      C3175   1.278       .  A
O3166     Cu3171   2.011       .  S
O3166      C3176   1.279       .  A
O3167     Cu3172   2.005       .  S
O3167      C3176   1.278       .  A
O3168     Cu3172   2.011       .  S
O3168      C3175   1.279       .  A
O3169     Cu3172   2.009       .  S
O3169      C3174   1.278       .  A
O3170     Cu3172   2.008       .  S
O3170      C3173   1.277       .  A
Cu3171    Cu3172   2.373       .  S
C3174      C3357   1.476       .  S
C3175      C3277   1.481       .  S
C3176      C3287   1.481       .  S
O3177      C3187   1.278       .  A
O3178     Cu3185   2.008       .  S
O3178      C3188   1.278       .  A
O3179     Cu3185   2.006       .  S
O3179      C3189   1.277       .  A
O3180     Cu3185   2.007       .  S
O3180      C3190   1.278       .  A
O3184     Cu3186   2.008   1_565  S
C3187      C3257   1.481       .  S
C3188      C3264   1.481       .  S
C3190      C3507   1.480       .  S
O3191     Cu3199   2.008       .  S
O3192     Cu3199   2.009       .  S
O3193     Cu3199   2.009       .  S
O3194     Cu3199   2.009       .  S
O3195     Cu3200   2.008       .  S
O3195      C3204   1.278       .  A
O3196     Cu3200   2.008       .  S
O3196      C3203   1.278       .  A
O3197     Cu3200   2.010       .  S
O3197      C3202   1.279       .  A
O3198     Cu3200   2.008       .  S
O3198      C3201   1.277       .  A
C3202      C3477   1.482       .  S
C3203      C3267   1.481       .  S
C3204      C3254   1.481       .  S
O3205     Cu3213   2.010       .  S
O3205      C3215   1.278       .  A
O3206     Cu3213   2.011       .  S
O3207     Cu3213   2.008   1_565  S
O3207      C3217   1.278       .  A
O3208      C3218   1.278       .  A
O3209     Cu3214   2.008       .  S
O3209      C3218   1.278       .  A
O3210      C3217   1.278       .  A
O3211     Cu3214   2.011       .  S
O3211      C3216   1.279       .  A
O3212     Cu3214   2.009       .  S
C3216      C3467   1.483       .  S
C3217      C3234   1.481       .  S
C3218      C3244   1.481       .  S
O3219     Cu3227   2.007       .  S
O3219      C3229   1.278       .  A
O3220     Cu3227   2.008       .  S
O3220      C3230   1.277       .  A
O3221     Cu3227   2.008       .  S
O3221      C3231   1.278       .  A
O3222     Cu3227   2.008       .  S
O3222      C3232   1.278       .  A
O3223     Cu3228   2.008       .  S
O3223      C3232   1.278       .  A
O3224     Cu3228   2.009       .  S
O3224      C3231   1.278       .  A
O3225     Cu3228   2.008       .  S
O3225      C3230   1.277       .  A
O3226     Cu3228   2.008       .  S
O3226      C3229   1.278       .  A
Cu3227    Cu3228   2.372       .  S
C3229      C3437   1.481       .  S
C3231      C3237   1.481       .  S
C3232      C3247   1.481       .  S
C3233      C3234   1.406       .  A
C3233      C3238   1.398       .  A
C3233      H3239   1.083       .  S
C3234      C3235   1.405       .  A
C3235      C3236   1.397       .  A
C3235      H3240   1.083       .  S
C3236      C3237   1.405       .  A
C3236      H3241   1.083       .  S
C3237      C3238   1.406       .  A
C3238      H3242   1.083       .  S
C3243      C3244   1.405       .  A
C3243      C3248   1.397       .  A
C3243      H3249   1.083       .  S
C3244      C3245   1.406       .  A
C3245      C3246   1.398       .  A
C3245      H3250   1.083       .  S
C3246      C3247   1.406       .  A
C3246      H3251   1.083       .  S
C3247      C3248   1.405       .  A
C3248      H3252   1.083       .  S
C3253      C3254   1.406       .  A
C3253      C3258   1.398       .  A
C3253      H3259   1.083       .  S
C3255      C3256   1.398       .  A
C3255      H3260   1.083       .  S
C3256      H3261   1.083       .  S
C3257      C3258   1.406       .  A
C3258      H3262   1.083       .  S
C3263      C3268   1.398       .  A
C3263      H3269   1.083       .  S
C3264      C3265   1.406       .  A
C3265      C3266   1.398       .  A
C3265      H3270   1.083       .  S
C3266      C3267   1.406       .  A
C3266      H3271   1.083       .  S
C3268      H3272   1.083       .  S
C3273      C3274   1.405       .  A
C3273      C3278   1.397       .  A
C3273      H3279   1.083       .  S
C3274      C3275   1.406       .  A
C3275      C3276   1.398       .  A
C3275      H3280   1.083       .  S
C3276      C3277   1.406       .  A
C3276      H3281   1.083       .  S
C3277      C3278   1.406       .  A
C3278      H3282   1.083       .  S
C3283      C3284   1.405       .  A
C3283      C3288   1.397       .  A
C3283      H3289   1.083       .  S
C3284      C3285   1.406       .  A
C3285      C3286   1.398       .  A
C3285      H3290   1.083       .  S
C3286      C3287   1.406       .  A
C3286      H3291   1.083       .  S
C3287      C3288   1.406       .  A
C3288      H3292   1.083       .  S
C3293      C3294   1.406       .  A
C3293      C3298   1.398       .  A
C3293      H3299   1.083       .  S
C3295      C3296   1.398       .  A
C3295      H3300   1.083       .  S
C3296      H3301   1.083       .  S
C3297      C3298   1.406       .  A
C3298      H3302   1.083       .  S
C3303      C3304   1.405       .  A
C3303      C3308   1.398       .  A
C3303      H3309   1.083       .  S
C3305      C3306   1.398       .  A
C3305      H3310   1.083       .  S
C3306      H3311   1.083       .  S
C3307      C3308   1.406       .  A
C3308      H3312   1.083       .  S
C3313      C3314   1.405       .  A
C3313      C3318   1.398       .  A
C3313      H3319   1.083       .  S
C3314      C3315   1.406       .  A
C3315      C3316   1.397       .  A
C3315      H3320   1.083       .  S
C3316      C3317   1.405       .  A
C3316      H3321   1.083       .  S
C3317      C3318   1.406       .  A
C3318      H3322   1.083       .  S
C3323      C3324   1.405       .  A
C3323      C3328   1.398       .  A
C3323      H3329   1.083       .  S
C3324      C3325   1.406       .  A
C3325      C3326   1.397       .  A
C3325      H3330   1.083       .  S
C3326      C3327   1.405       .  A
C3326      H3331   1.083       .  S
C3327      C3328   1.406       .  A
C3328      H3332   1.083       .  S
C3333      C3338   1.398       .  A
C3333      H3339   1.083       .  S
C3334      C3335   1.406       .  A
C3335      C3336   1.398       .  A
C3335      H3340   1.083       .  S
C3336      C3337   1.405       .  A
C3336      H3341   1.083       .  S
C3338      H3342   1.083       .  S
C3343      C3348   1.398       .  A
C3343      H3349   1.083       .  S
C3344      C3345   1.405       .  A
C3345      C3346   1.398       .  A
C3345      H3350   1.083       .  S
C3346      C3347   1.406       .  A
C3346      H3351   1.083       .  S
C3348      H3352   1.083       .  S
C3353      C3354   1.405       .  A
C3353      C3358   1.398       .  A
C3353      H3359   1.083       .  S
C3354      C3355   1.405       .  A
C3355      C3356   1.398       .  A
C3355      H3360   1.083       .  S
C3356      C3357   1.405   1_554  A
C3356      H3361   1.083   1_554  S
C3357      C3358   1.405   1_556  A
C3358      H3362   1.083   1_554  S
C3363      C3368   1.398       .  A
C3363      H3369   1.083       .  S
C3364      C3365   1.406       .  A
C3365      C3366   1.398       .  A
C3365      H3370   1.083       .  S
C3366      C3367   1.406   1_554  A
C3366      H3371   1.083   1_554  S
C3368      H3372   1.083   1_554  S
C3373      C3374   1.406       .  A
C3373      C3378   1.399       .  A
C3373      H3379   1.083       .  S
C3374      C3375   1.405       .  A
C3375      C3376   1.397       .  A
C3375      H3380   1.083       .  S
C3376      C3377   1.405       .  A
C3376      H3381   1.083       .  S
C3377      C3378   1.406       .  A
C3378      H3382   1.083       .  S
C3383      C3384   1.405       .  A
C3383      C3388   1.396       .  A
C3383      H3389   1.083       .  S
C3384      C3385   1.406       .  A
C3385      C3386   1.399       .  A
C3385      H3390   1.083       .  S
C3386      C3387   1.406       .  A
C3386      H3391   1.083       .  S
C3387      C3388   1.405       .  A
C3388      H3392   1.083       .  S
C3393      C3394   1.406       .  A
C3393      C3398   1.398       .  A
C3393      H3399   1.083       .  S
C3395      C3396   1.398       .  A
C3395      H3400   1.083       .  S
C3396      H3401   1.083   1_554  S
C3397      C3398   1.406   1_556  A
C3398      H3402   1.083   1_554  S
C3403      C3404   1.406       .  A
C3403      C3408   1.398       .  A
C3403      H3409   1.083       .  S
C3405      C3406   1.398       .  A
C3405      H3410   1.083       .  S
C3406      H3411   1.083       .  S
C3407      C3408   1.406       .  A
C3408      H3412   1.083       .  S
C3413      C3414   1.406       .  A
C3413      C3418   1.398       .  A
C3413      H3419   1.083       .  S
C3415      C3416   1.398       .  A
C3415      H3420   1.083       .  S
C3416      H3421   1.083       .  S
C3417      C3418   1.406       .  A
C3418      H3422   1.083       .  S
C3423      C3424   1.405       .  A
C3423      C3428   1.398       .  A
C3423      H3429   1.083       .  S
C3425      C3426   1.397       .  A
C3425      H3430   1.083       .  S
C3426      H3431   1.083   1_554  S
C3427      C3428   1.405   1_556  A
C3428      H3432   1.083   1_554  S
C3433      C3434   1.406       .  A
C3433      C3438   1.398       .  A
C3433      H3439   1.083       .  S
C3434      C3435   1.406       .  A
C3435      C3436   1.398       .  A
C3435      H3440   1.083       .  S
C3436      C3437   1.406       .  A
C3436      H3441   1.083       .  S
C3437      C3438   1.405       .  A
C3438      H3442   1.083       .  S
C3443      C3444   1.406       .  A
C3443      C3448   1.398       .  A
C3443      H3449   1.083       .  S
C3444      C3445   1.406       .  A
C3445      C3446   1.398       .  A
C3445      H3450   1.083       .  S
C3446      C3447   1.405       .  A
C3446      H3451   1.083       .  S
C3447      C3448   1.406       .  A
C3448      H3452   1.083       .  S
C3453      C3454   1.406       .  A
C3453      C3458   1.398       .  A
C3453      H3459   1.083       .  S
C3454      C3455   1.406       .  A
C3455      C3456   1.398       .  A
C3455      H3460   1.083       .  S
C3456      C3457   1.405       .  A
C3456      H3461   1.083       .  S
C3457      C3458   1.406       .  A
C3458      H3462   1.083       .  S
C3463      C3468   1.398       .  A
C3463      H3469   1.083       .  S
C3464      C3465   1.406       .  A
C3465      C3466   1.398       .  A
C3465      H3470   1.083       .  S
C3466      C3467   1.406       .  A
C3466      H3471   1.083       .  S
C3468      H3472   1.083       .  S
C3473      C3474   1.406       .  A
C3473      C3478   1.398       .  A
C3473      H3479   1.083       .  S
C3475      C3476   1.398       .  A
C3475      H3480   1.083       .  S
C3476      H3481   1.083       .  S
C3477      C3478   1.406       .  A
C3478      H3482   1.083       .  S
C3483      C3488   1.398       .  A
C3483      H3489   1.083       .  S
C3484      C3485   1.406       .  A
C3485      C3486   1.398       .  A
C3485      H3490   1.083       .  S
C3486      C3487   1.406       .  A
C3486      H3491   1.083       .  S
C3488      H3492   1.083       .  S
C3493      C3498   1.398       .  A
C3493      H3499   1.083       .  S
C3494      C3495   1.406       .  A
C3495      C3496   1.398       .  A
C3495      H3500   1.083       .  S
C3496      C3497   1.406       .  A
C3496      H3501   1.083       .  S
C3498      H3502   1.083       .  S
C3503      C3508   1.397       .  A
C3503      H3509   1.083       .  S
C3505      C3506   1.397       .  A
C3505      H3510   1.083       .  S
C3506      H3511   1.083       .  S
C3508      H3512   1.083       .  S
C3513      C3514   1.403       .  A
C3513      C3518   1.399       .  A
C3513      H3519   1.083       .  S
C3514      C3515   1.403       .  A
C3515      C3516   1.399       .  A
C3515      H3520   1.083       .  S
C3516      C3517   1.403       .  A
C3516      H3521   1.084       .  S
C3517      C3518   1.403       .  A
C3518      H3522   1.084       .  S
C3523      C3524   1.405       .  A
C3523      C3528   1.398       .  A
C3523      H3529   1.083       .  S
C3524      C3525   1.406       .  A
C3525      C3526   1.398       .  A
C3525      H3530   1.083       .  S
C3526      C3527   1.405       .  A
C3526      H3531   1.083       .  S
C3527      C3528   1.406       .  A
C3528      H3532   1.083       .  S
C3533      C3534   1.405       .  A
C3533      C3538   1.398       .  A
C3533      H3539   1.083       .  S
C3534      C3535   1.406       .  A
C3535      C3536   1.398       .  A
C3535      H3540   1.083       .  S
C3536      C3537   1.405       .  A
C3536      H3541   1.083       .  S
C3537      C3538   1.406       .  A
C3538      H3542   1.083       .  S
C3543      C3548   1.397       .  A
C3543      H3549   1.083       .  S
C3544      C3545   1.403       .  A
C3545      C3546   1.397       .  A
C3545      H3550   1.083       .  S
C3546      C3547   1.403       .  A
C3546      H3551   1.084       .  S
C3548      H3552   1.084       .  S
C3553      C3554   1.403       .  A
C3553      C3558   1.398       .  A
C3553      H3559   1.084       .  S
C3555      C3556   1.398       .  A
C3555      H3560   1.084       .  S
C3556      H3561   1.083       .  S
C3557      C3558   1.403       .  A
C3558      H3562   1.083       .  S
C3563      C3568   1.398       .  A
C3563      H3569   1.083       .  S
C3564      C3565   1.406       .  A
C3565      C3566   1.398       .  A
C3565      H3570   1.083       .  S
C3566      C3567   1.405       .  A
C3566      H3571   1.083       .  S
C3568      H3572   1.083       .  S
C3573      C3574   1.406       .  A
C3573      C3578   1.398       .  A
C3573      H3579   1.083       .  S
C3575      C3576   1.398       .  A
C3575      H3580   1.083       .  S
C3576      H3581   1.083       .  S
C3577      C3578   1.405       .  A
C3578      H3582   1.083       .  S
C3583      C3588   1.399       .  A
C3583      H3589   1.083       .  S
C3585      C3586   1.399       .  A
C3585      H3590   1.083       .  S
C3586      H3591   1.084       .  S
C3588      H3592   1.084       .  S
C3593      C3594   1.406       .  A
C3593      C3598   1.398       .  A
C3593      H3599   1.083       .  S
C3594      C3595   1.406       .  A
C3595      C3596   1.398       .  A
C3595      H3600   1.083       .  S
C3596      C3597   1.405       .  A
C3596      H3601   1.083       .  S
C3597      C3598   1.406       .  A
C3598      H3602   1.083       .  S
C3603      C3604   1.406       .  A
C3603      C3608   1.397       .  A
C3603      H3609   1.083       .  S
C3604      C3605   1.406       .  A
C3605      C3606   1.398       .  A
C3605      H3610   1.083       .  S
C3606      C3607   1.405       .  A
C3606      H3611   1.083       .  S
C3607      C3608   1.406       .  A
C3608      H3612   1.083       .  S
C3613      C3618   1.398       .  A
C3613      H3619   1.083       .  S
C3614      C3615   1.406       .  A
C3615      C3616   1.398       .  A
C3615      H3620   1.083       .  S
C3616      C3617   1.405       .  A
C3616      H3621   1.083       .  S
C3618      H3622   1.083       .  S
C3623      C3628   1.398       .  A
C3623      H3629   1.083       .  S
C3624      C3625   1.405       .  A
C3625      C3626   1.398       .  A
C3625      H3630   1.083       .  S
C3626      C3627   1.406       .  A
C3626      H3631   1.083       .  S
C3628      H3632   1.083       .  S
C3633      C3634   1.406       .  A
C3633      C3638   1.398       .  A
C3633      H3639   1.083       .  S
C3634      C3635   1.406       .  A
C3635      C3636   1.398       .  A
C3635      H3640   1.083       .  S
C3636      C3637   1.401       .  A
C3636      H3641   1.083       .  S
C3637      C3638   1.401       .  A
C3638      H3642   1.083       .  S
C3643      C3644   1.405       .  A
C3643      C3648   1.397       .  A
C3643      H3649   1.083       .  S
C3644      C3645   1.406       .  A
C3645      C3646   1.399       .  A
C3645      H3650   1.083       .  S
C3646      C3647   1.406       .  A
C3646      H3651   1.083       .  S
C3647      C3648   1.405       .  A
C3648      H3652   1.083       .  S
C3653      C3654   1.406       .  A
C3653      C3658   1.399       .  A
C3653      H3659   1.083       .  S
C3654      C3655   1.406       .  A
C3655      C3656   1.397       .  A
C3655      H3660   1.083       .  S
C3656      C3657   1.405       .  A
C3656      H3661   1.083       .  S
C3657      C3658   1.406       .  A
C3658      H3662   1.083       .  S
C3663      C3664   1.403       .  A
C3663      C3668   1.398       .  A
C3663      H3669   1.083       .  S
C3665      C3666   1.398       .  A
C3665      H3670   1.083       .  S
C3666      H3671   1.083       .  S
C3667      C3668   1.403       .  A
C3668      H3672   1.083       .  S
C3673      C3674   1.404       .  A
C3673      C3678   1.398       .  A
C3673      H3679   1.084       .  S
C3675      C3676   1.398       .  A
C3675      H3680   1.084       .  S
C3676      C3677   1.403       .  A
C3676      H3681   1.083       .  S
C3678      H3682   1.083       .  S
C3683      C3688   1.398       .  A
C3683      H3689   1.083       .  S
C3684      C3685   1.406       .  A
C3685      C3686   1.398       .  A
C3685      H3690   1.083       .  S
C3686      C3687   1.405       .  A
C3686      H3691   1.083       .  S
C3688      H3692   1.083       .  S
C3693      C3694   1.405       .  A
C3693      C3698   1.398       .  A
C3693      H3699   1.083       .  S
C3695      C3696   1.398       .  A
C3695      H3700   1.083       .  S
C3696      H3701   1.083       .  S
C3697      C3698   1.406       .  A
C3698      H3702   1.083       .  S
C3703      C3708   1.398       .  A
C3703      H3709   1.083       .  S
C3705      C3706   1.398       .  A
C3705      H3710   1.083       .  S
C3706      H3711   1.083       .  S
C3708      H3712   1.083       .  S
