geometry optimzed in LAMMPS
_audit_creation_date              2020-11-30 
_audit_creation_method            'lammps2cif' 
_symmetry_space_group_name_H-M    'P1' 
_symmetry_Int_Tables_number       1 
_symmetry_cell_setting            triclinic 
loop_ 
_symmetry_equiv_pos_as_xyz 
  x,y,z 
_cell_length_a                    41.23244452 
_cell_length_b                    41.70303702900058 
_cell_length_c                    26.786303184687497 
_cell_angle_alpha                 89.93022730206049 
_cell_angle_beta                  89.46999534628628 
_cell_angle_gamma                 120.3906855008589 
loop_ 
_atom_site_label 
_atom_site_type_symbol 
_atom_site_fract_x 
_atom_site_fract_y 
_atom_site_fract_z 
_atom_site_charge 
C1          C  0.79720805  0.22507889  0.08540387     0.03500
C2          C  0.75725598  0.21952582  0.38827987    -0.12600
C3          C  0.73996087  0.18313843  0.36781709     0.01000
C4          C  0.76270211  0.16915660  0.35117993    -0.11100
C5          C  0.79406996  0.16506766  0.08368634     0.03500
C6          C  0.81404460  0.20341224  0.09224688    -0.10600
H7          H  0.74010686  0.23092301  0.40065439     0.09100
H8          H  0.74988102  0.14161322  0.33503586     0.06600
H9          H  0.84330683  0.21668687  0.10301131     0.06500
C10         C  0.21028866  0.44961809  0.32982814     0.03500
C11         C  0.19646996  0.41245091  0.31641615    -0.12600
C12         C  0.23221961  0.38828972  0.05008171     0.01000
C13         C  0.26865615  0.40799169  0.06782617    -0.11100
C14         C  0.28781172  0.44694187  0.07137685     0.03500
C15         C  0.27051268  0.46635456  0.05126984    -0.10600
H16         H  0.17030313  0.39744984  0.29629347     0.09100
H17         H  0.28169254  0.39255646  0.08079138     0.06600
H18         H  0.28472189  0.49634687  0.05276314     0.06500
C19         C  0.47744393  0.20392153  0.08393673     0.03500
C20         C  0.43820460  0.18392031  0.08141059    -0.12600
C21         C  0.42947670  0.19144843  0.35613147     0.01000
C22         C  0.45172457  0.22886766  0.34241405    -0.11100
C23         C  0.49019791  0.24893950  0.35332830     0.03500
C24         C  0.50738427  0.23010858  0.37462256    -0.10600
H25         H  0.42315657  0.15406965  0.08755521     0.09100
H26         H  0.43910629  0.24270533  0.32334046     0.06600
H27         H  0.53731853  0.24508778  0.38149915     0.06500
C28         C  0.24344279  0.78497869  0.36544803     0.03500
C29         C  0.22280219  0.79158265  0.32994563    -0.12600
C30         C  0.18606479  0.77177845  0.97336596     0.01000
C31         C  0.16421690  0.73842369  0.99978387    -0.11100
C32         C  0.18042831  0.72699447  0.03664917     0.03500
C33         C  0.21961062  0.74863639  0.04519914    -0.10600
H34         H  0.23717072  0.81609628  0.30624731     0.09100
H35         H  0.13443247  0.72157592  0.99241542     0.06600
H36         H  0.23249339  0.74023952  0.07345245     0.06500
C37         C  0.78893040  0.52183531  0.35609244     0.03500
C38         C  0.80343161  0.55341128  0.32526938    -0.12600
C39         C  0.80707543  0.57248679  0.97627444     0.01000
C40         C  0.77369194  0.55992071  0.00334868    -0.11100
C41         C  0.76484253  0.53591905  0.04486847     0.03500
C42         C  0.78725299  0.51904272  0.05230755    -0.10600
H43         H  0.83026564  0.56346351  0.30633298     0.09100
H44         H  0.75619944  0.57150682  0.99423004     0.06600
H45         H  0.78098381  0.49967967  0.08282582     0.06500
C46         C  0.55766881  0.81081311  0.02815144     0.03500
C47         C  0.59424880  0.83410556  0.00970840    -0.12600
C48         C  0.63921679  0.82532307  0.32369275     0.01000
C49         C  0.62776829  0.78784139  0.32825710    -0.11100
C50         C  0.59243370  0.76215386  0.34850819     0.03500
C51         C  0.57279470  0.77666067  0.37588662    -0.10600
H52         H  0.60753869  0.86402015  0.01350471     0.09100
H53         H  0.64505382  0.77817198  0.31082173     0.06600
H54         H  0.54636969  0.75795923  0.39440584     0.06500
O55         O  0.05243414  0.95489818  0.91467574    -0.87900
C56         C  0.07759831  0.04951929  0.12830291     0.88100
Mg57       Mg  0.01501228  0.90233074  0.88126115     1.58100
O58         O  0.01348135  0.01939916  0.96571481    -0.87700
O59         O  0.06163034  0.98208655  0.98680910    -0.75000
C60         C  0.86400915  0.91756382  0.14360817     0.93100
O61         O  0.05101688  0.96314989  0.10788218    -0.74800
O62         O  0.87911997  0.89773967  0.13755568    -0.82300
Mg63       Mg  0.09539213  0.99517830  0.16793013     1.58000
C64         C  0.91758283  0.02401774  0.98578203     0.93100
O65         O  0.14088316  0.02234693  0.92579466    -0.80600
H66         H  0.01178571  0.00597227  0.03837712    -0.05900
C67         C  0.96350903  0.00019425  0.11488382     0.88000
O68         O  0.96902359  0.89179785  0.93835904    -0.75100
O69         O  0.08059432  0.03748365  0.16919570    -0.87900
O70         O  0.95196286  0.04659948  0.97488733    -0.80700
C71         C  0.09318856  0.14106919  0.19161546     0.93200
C72         C  0.15229145  0.04824108  0.95814887     0.93000
Mg73       Mg  0.92237843  0.95578957  0.93663455     1.58000
O74         O  0.88130013  0.94941572  0.16433676    -0.80600
O75         O  0.96328803  0.97366482  0.00107615    -0.74800
O76         O  0.10627508  0.12059048  0.20518193    -0.80700
O77         O  0.11062807  0.95037851  0.16673823    -0.82400
O78         O  0.92292340  0.85099078  0.84124924    -0.80700
C79         C  0.99666834  0.00049804  0.00386694     0.87500
O80         O  0.94237394  0.92149256  0.90849595    -0.87800
O81         O  0.96984089  0.01053603  0.15859278    -0.88000
O82         O  0.95443065  0.96728551  0.10257867    -0.75000
Mg83       Mg  0.07241518  0.04036563  0.96894865     1.58000
O84         O  0.05842625  0.12722606  0.18234585    -0.82400
H85         H  0.05254344  0.92985871  0.97833855    -0.06100
O86         O  0.99759477  0.92849643  0.14755834    -0.87700
H87         H  0.00234313  0.92738479  0.07326624    -0.05900
H88         H  0.92363626  0.89043350  0.97057434    -0.06100
C89         C  0.01622741  0.93875891  0.10830007     0.87400
C90         C  0.05572277  0.95453278  0.96036128     0.88000
C91         C  0.94372086  0.90053436  0.93996809     0.88100
H92         H  0.96664998  0.01992330  0.08629578    -0.06100
O93         O  0.05397523  0.06006826  0.12128909    -0.75100
Mg94       Mg  0.93964269  0.91305550  0.14349428     1.58000
H95         H  0.09462341  0.04989245  0.09723455    -0.06100
C96         C  0.09048733  0.91518307  0.16639127     0.93100
O97         O  0.97366788  0.84569010  0.84943978    -0.82300
C98         C  0.93827851  0.83108147  0.84451169     0.93100
O99         O  0.13174531  0.06076036  0.97246088    -0.82300
Mg100      Mg  0.01231510  0.06720266  0.17083552     1.58200
O101        O  0.05489077  0.89884357  0.17187499    -0.80700
O102        O  0.90071343  0.99068814  0.97055124    -0.82400
C103        C  0.99128993  0.48293896  0.21368255    -0.02100
C104        C  0.49247772  0.98614187  0.22253909    -0.02100
C105        C  0.53102958  0.49823615  0.24587982    -0.02100
C106        C  0.68793976  0.86204422  0.19993926    -0.22100
C107        C  0.72383964  0.86867376  0.21143546     0.09900
C108        C  0.71732164  0.86485817  0.95935426     0.10300
C109        C  0.68325651  0.84995217  0.98586439    -0.17000
C110        C  0.66931176  0.84765890  0.28726808    -0.27400
C111        C  0.66054283  0.85198355  0.23767098     0.18600
C112        C  0.75129662  0.87562493  0.17113189     0.12600
C113        C  0.75262097  0.87325996  0.98659131    -0.11800
H114        H  0.68179926  0.84196056  0.02472417     0.12900
C115        C  0.62210303  0.84507424  0.22443768    -0.22600
H116        H  0.68109425  0.86367662  0.16139666     0.08500
C117        C  0.75924911  0.85100911  0.86668585     0.04900
C118        C  0.79509572  0.86116908  0.84820025    -0.19800
C119        C  0.82350427  0.90123842  0.13342037    -0.12100
C120        C  0.80727773  0.92392323  0.12942734     0.13600
C121        C  0.77148900  0.91127686  0.15015465    -0.22500
C122        C  0.73142724  0.81072093  0.87803945    -0.05600
H123        H  0.80379199  0.84061593  0.84686481     0.15100
C124        C  0.82764618  0.96173303  0.10537491    -0.15800
H125        H  0.76087488  0.93023526  0.15375175     0.09400
H126        H  0.60029016  0.81608774  0.23370492     0.07300
H127        H  0.62020452  0.84985582  0.18405896     0.08500
H128        H  0.61608985  0.86434046  0.24572078     0.07500
H129        H  0.77390494  0.90319023  0.98207999     0.02400
H130        H  0.76439955  0.85647627  0.97160446     0.02900
H131        H  0.74721700  0.86715144  0.02720070     0.06400
H132        H  0.74276293  0.79248649  0.86754490     0.05400
H133        H  0.70536371  0.80184921  0.85655107    -0.00400
H134        H  0.72421031  0.80652467  0.91838779     0.01100
H135        H  0.81052432  0.96264591  0.07426988     0.04700
H136        H  0.85544025  0.96852656  0.08971628     0.06700
H137        H  0.83144943  0.98289935  0.13301866     0.07600
C138        C  0.53052924  0.85506610  0.13276296    -0.22100
C139        C  0.52664322  0.88229712  0.10660531     0.09900
C140        C  0.52883114  0.88258886  0.05375410     0.10300
C141        C  0.53564271  0.85667086  0.02894423    -0.17000
C142        C  0.54001367  0.82980701  0.05512259    -0.27400
C143        C  0.53675172  0.82875056  0.10776428     0.18600
C144        C  0.51862001  0.90881528  0.13527841     0.12600
C145        C  0.52377513  0.90997087  0.02308032    -0.11800
H146        H  0.55600083  0.85380868  0.34102142     0.12900
C147        C  0.54112994  0.80061556  0.13768739    -0.22600
H148        H  0.52913328  0.85467218  0.17319138     0.08500
C149        C  0.48484835  0.89586065  0.16222537     0.04900
C150        C  0.47834873  0.92079695  0.18971742    -0.19800
C151        C  0.50352403  0.96016835  0.19069075    -0.12100
C152        C  0.53805019  0.97291122  0.16236637     0.13600
C153        C  0.54487251  0.94715932  0.13627462    -0.22500
C154        C  0.45458063  0.85529271  0.16126588    -0.05600
H155        H  0.45232518  0.90778735  0.21030676     0.15100
C156        C  0.56938183  0.01308993  0.15853296    -0.15800
H157        H  0.57125506  0.95731048  0.11617768     0.09400
H158        H  0.51898046  0.77214490  0.12713356     0.07300
H159        H  0.53850062  0.80384922  0.17842442     0.08500
H160        H  0.56914412  0.80382803  0.13016036     0.07500
H161        H  0.54502170  0.93882260  0.03316878     0.02400
H162        H  0.49530292  0.90546203  0.02979364     0.02900
H163        H  0.53585461  0.89715250  0.33626252     0.06400
H164        H  0.42869866  0.84991992  0.18162732     0.05400
H165        H  0.46462666  0.83797722  0.17915578    -0.00400
H166        H  0.44672453  0.84630206  0.12205824     0.01100
H167        H  0.59500379  0.01620231  0.17639288     0.04700
H168        H  0.56251669  0.03287963  0.17614700     0.06700
H169        H  0.57672206  0.02146095  0.11884974     0.07600
C170        C  0.55899271  0.58449691  0.33770930    -0.22100
C171        C  0.55384106  0.60808425  0.30502887     0.09900
C172        C  0.54442604  0.59603345  0.25512796     0.10300
C173        C  0.54546536  0.56480185  0.23856244    -0.17000
C174        C  0.54446412  0.53762606  0.27160790    -0.27400
C175        C  0.55229472  0.54873360  0.32313357     0.18600
C176        C  0.56282441  0.64688315  0.32025432     0.12600
C177        C  0.53024087  0.61356573  0.21841327    -0.11800
H178        H  0.54155975  0.55888850  0.19894986     0.12900
C179        C  0.55444344  0.52496325  0.36400716    -0.22600
H180        H  0.56863241  0.59408075  0.37506509     0.08500
C181        C  0.54880407  0.65557320  0.36397834     0.04900
C182        C  0.55804162  0.69297497  0.37295963    -0.19800
C183        C  0.57772530  0.72136295  0.33715092    -0.12100
C184        C  0.58685985  0.71072946  0.29094881     0.13600
C185        C  0.58383296  0.67593833  0.28626818    -0.22500
C186        C  0.52306080  0.62576122  0.40037865    -0.05600
H187        H  0.54970413  0.69989464  0.40791571     0.15100
C188        C  0.59693222  0.73390297  0.24379059    -0.15800
H189        H  0.59489564  0.67038754  0.25259095     0.09400
H190        H  0.55695083  0.53746364  0.40141016     0.07300
H191        H  0.57999270  0.52295141  0.35910956     0.08500
H192        H  0.52871678  0.49719182  0.36590384     0.07500
H193        H  0.55082288  0.62682370  0.18726964     0.02400
H194        H  0.52434971  0.63420624  0.23578660     0.02900
H195        H  0.50313387  0.59167370  0.20277882     0.06400
H196        H  0.51128044  0.63677222  0.42847959     0.05400
H197        H  0.53848922  0.61470502  0.42097995    -0.00400
H198        H  0.49912557  0.60289790  0.38024375     0.01100
H199        H  0.62655253  0.74378915  0.23270474     0.04700
H200        H  0.59242513  0.75775367  0.24756021     0.06700
H201        H  0.57833006  0.71670592  0.21310725     0.07600
C202        C  0.89907024  0.73218354  0.21427958    -0.22100
C203        C  0.86934882  0.71355105  0.87227306     0.09900
C204        C  0.85544358  0.73772189  0.88160748     0.10300
C205        C  0.87749882  0.77539486  0.86824583    -0.17000
C206        C  0.91375363  0.78990596  0.84731316    -0.27400
C207        C  0.92312661  0.76960205  0.20093357     0.18600
C208        C  0.85220728  0.67636451  0.89641804     0.12600
C209        C  0.81862671  0.72452329  0.90885865    -0.11800
H210        H  0.86731269  0.79407194  0.87750535     0.12900
C211        C  0.96304138  0.78157995  0.18576968    -0.22600
H212        H  0.90986010  0.71327538  0.21544203     0.08500
C213        C  0.82250325  0.64873813  0.22058927     0.04900
C214        C  0.80387849  0.61351860  0.24391296    -0.19800
C215        C  0.82333111  0.60792649  0.94784091    -0.12100
C216        C  0.85646323  0.63974052  0.96451128     0.13600
C217        C  0.87056839  0.67328138  0.93826771    -0.22500
C218        C  0.82421789  0.65153465  0.16458244    -0.05600
H219        H  0.78991470  0.58858738  0.22148631     0.15100
C220        C  0.87622749  0.63909299  0.01138352    -0.15800
H221        H  0.89594782  0.69766812  0.95099568     0.09400
H222        H  0.96765215  0.75758265  0.18336050     0.07300
H223        H  0.98301759  0.80093208  0.21371489     0.08500
H224        H  0.96949697  0.79518738  0.14845345     0.07500
H225        H  0.81927846  0.71290788  0.94590511     0.02400
H226        H  0.79514523  0.70285232  0.88689078     0.02900
H227        H  0.81281817  0.74749473  0.91497079     0.06400
H228        H  0.81029266  0.62360208  0.14733714     0.05400
H229        H  0.85396030  0.66657115  0.15159508    -0.00400
H230        H  0.81017288  0.66678064  0.15179807     0.01100
H231        H  0.88810272  0.62064176  0.00658229     0.04700
H232        H  0.85615086  0.62917586  0.04345314     0.06700
H233        H  0.89990336  0.66714323  0.02070973     0.07600
C234        C  0.68865327  0.54897702  0.10998234    -0.22100
C235        C  0.66530514  0.51443277  0.13289168     0.09900
C236        C  0.67630915  0.48719340  0.12981448     0.10300
C237        C  0.70882267  0.49474693  0.10162820    -0.17000
C238        C  0.73252921  0.52979886  0.07920701    -0.27400
C239        C  0.72316099  0.55801972  0.08755610     0.18600
C240        C  0.63140264  0.50953124  0.16198252     0.12600
C241        C  0.65499953  0.45071918  0.15758561    -0.11800
H242        H  0.71552252  0.47294576  0.09703032     0.12900
C243        C  0.74958577  0.59887569  0.07731212    -0.22600
H244        H  0.68117138  0.57038724  0.11288127     0.08500
C245        C  0.63417564  0.53613342  0.19691609     0.04900
C246        C  0.60146188  0.53432456  0.21637513    -0.19800
C247        C  0.56443415  0.50340192  0.20915894    -0.12100
C248        C  0.56292981  0.47453400  0.17792965     0.13600
C249        C  0.59540456  0.47963753  0.15227399    -0.22500
C250        C  0.67136271  0.56571914  0.21767328    -0.05600
H251        H  0.60658553  0.55612653  0.24229198     0.15100
C252        C  0.52877019  0.43668357  0.17142432    -0.15800
H253        H  0.59245857  0.45913641  0.12522224     0.09400
H254        H  0.75105825  0.61506111  0.11097435     0.07300
H255        H  0.73884393  0.60827072  0.04604154     0.08500
H256        H  0.77877179  0.60573606  0.06913680     0.07500
H257        H  0.62672283  0.43316917  0.14161450     0.02400
H258        H  0.65232382  0.45587557  0.19766748     0.02900
H259        H  0.66970365  0.43461865  0.15522936     0.06400
H260        H  0.67027794  0.56377143  0.25909757     0.05400
H261        H  0.67678104  0.59366209  0.20648893    -0.00400
H262        H  0.69542492  0.56267237  0.20559177     0.01100
H263        H  0.52239538  0.43223897  0.13106302     0.04700
H264        H  0.50351576  0.43272504  0.19099210     0.06700
H265        H  0.53470395  0.41507176  0.18530489     0.07600
C266        C  0.90607412  0.45547239  0.30705822    -0.22100
C267        C  0.90287923  0.48740068  0.30644614     0.09900
C268        C  0.93164918  0.51948411  0.28256505     0.10300
C269        C  0.96164954  0.51856020  0.25827108    -0.17000
C270        C  0.96433283  0.48582634  0.25467377    -0.27400
C271        C  0.93598009  0.45414793  0.28232047     0.18600
C272        C  0.86864394  0.48692085  0.32809857     0.12600
C273        C  0.92944541  0.55449524  0.27948712    -0.11800
H274        H  0.98071601  0.54340501  0.23805077     0.12900
C275        C  0.93496949  0.41756364  0.28565944    -0.22600
H276        H  0.88442664  0.43084930  0.32615326     0.08500
C277        C  0.83387695  0.47024298  0.30270190     0.04900
C278        C  0.80548924  0.47777844  0.31778976    -0.19800
C279        C  0.81089600  0.50215846  0.35716599    -0.12100
C280        C  0.84418011  0.51601215  0.38544668     0.13600
C281        C  0.87233692  0.50795056  0.37096357    -0.22500
C282        C  0.82773914  0.44733990  0.25667968    -0.05600
H283        H  0.78041310  0.46759212  0.29544508     0.15100
C284        C  0.87958365  0.54928180  0.09793830    -0.15800
H285        H  0.89848095  0.52031187  0.39135761     0.09400
H286        H  0.91022806  0.39588914  0.26543730     0.07300
H287        H  0.93260339  0.40912744  0.32534012     0.08500
H288        H  0.96076050  0.41896003  0.27110955     0.07500
H289        H  0.93034711  0.56544377  0.31747802     0.02400
H290        H  0.90288635  0.54842118  0.26116430     0.02900
H291        H  0.95316912  0.57675001  0.25754387     0.06400
H292        H  0.79853560  0.43502399  0.24286326     0.05400
H293        H  0.83294618  0.42422057  0.26470911    -0.00400
H294        H  0.84687428  0.46545165  0.22664766     0.01100
H295        H  0.88391271  0.53648707  0.13173376     0.04700
H296        H  0.85462849  0.55214873  0.10482832     0.06700
H297        H  0.90442119  0.57748353  0.09233539     0.07600
C298        C  0.15780741  0.88055193  0.19334657    -0.22100
C299        C  0.13232999  0.84222060  0.19485940     0.09900
C300        C  0.11029902  0.84280835  0.81978288     0.10300
C301        C  0.09817947  0.86791306  0.80853446    -0.17000
C302        C  0.10829787  0.89174481  0.16533699    -0.27400
C303        C  0.14646778  0.90567476  0.17851134     0.18600
C304        C  0.14211147  0.81834609  0.22438813     0.12600
C305        C  0.08680117  0.80262973  0.80501835    -0.11800
H306        H  0.07134153  0.85759143  0.79039379     0.12900
C307        C  0.17505249  0.94668114  0.18027797    -0.22600
H308        H  0.18592949  0.89100308  0.20751886     0.08500
C309        C  0.16867840  0.80892740  0.20773772     0.04900
C310        C  0.17895110  0.78894277  0.23979119    -0.19800
C311        C  0.16436602  0.77948526  0.28887739    -0.12100
C312        C  0.14273209  0.79645450  0.95406561     0.13600
C313        C  0.13306900  0.81665657  0.92173104    -0.22500
C314        C  0.18693499  0.82098374  0.15692778    -0.05600
H315        H  0.20024357  0.78262790  0.22761467     0.15100
C316        C  0.12645258  0.78823585  0.00632272    -0.15800
H317        H  0.11306309  0.82469859  0.93399655     0.09400
H318        H  0.20359539  0.95184143  0.18893565     0.07300
H319        H  0.16735761  0.96032991  0.20985888     0.08500
H320        H  0.17677951  0.95969978  0.14341119     0.07500
H321        H  0.07699098  0.78462092  0.83882967     0.02400
H322        H  0.10387912  0.79474348  0.78132282     0.02900
H323        H  0.06169370  0.79744894  0.78355816     0.06400
H324        H  0.20583545  0.80985727  0.14870376     0.05400
H325        H  0.20389070  0.85176959  0.15485568    -0.00400
H326        H  0.16498399  0.81095919  0.12788771     0.01100
H327        H  0.10828512  0.80037633  0.01331534     0.04700
H328        H  0.14949526  0.80029441  0.03391888     0.06700
H329        H  0.10886470  0.75783796  0.01238654     0.07600
C330        C  0.09989384  0.65798597  0.12054700    -0.22100
C331        C  0.10040713  0.62504505  0.11221647     0.09900
C332        C  0.12913428  0.62636803  0.08122335     0.10300
C333        C  0.15602488  0.66033390  0.05879825    -0.17000
C334        C  0.15516205  0.69315618  0.06685009    -0.27400
C335        C  0.12709754  0.69195956  0.09909869     0.18600
C336        C  0.07096365  0.58990466  0.13715029     0.12600
C337        C  0.13176132  0.59214513  0.07208136    -0.11800
H338        H  0.17726293  0.66111248  0.03385496     0.12900
C339        C  0.12523542  0.72610801  0.11224267    -0.22600
H340        H  0.07804758  0.65723635  0.14422141     0.08500
C341        C  0.06969013  0.58511476  0.18918470     0.04900
C342        C  0.04164596  0.55172018  0.21079777    -0.19800
C343        C  0.01435937  0.52093082  0.18276321    -0.12100
C344        C  0.01613661  0.52654281  0.12938619     0.13600
C345        C  0.04369487  0.56105573  0.10835193    -0.22500
C346        C  0.09902187  0.61459585  0.22224239    -0.05600
H347        H  0.04202277  0.54890126  0.25088615     0.15100
C348        C  0.99153968  0.49752975  0.09210194    -0.15800
H349        H  0.04466828  0.56552453  0.06834676     0.09400
H350        H  0.12694359  0.72979831  0.15338009     0.07300
H351        H  0.09822207  0.72286044  0.09938756     0.08500
H352        H  0.14854404  0.75173676  0.09532289     0.07500
H353        H  0.10627028  0.57088703  0.05280388     0.02400
H354        H  0.13453902  0.58079761  0.10821513     0.02900
H355        H  0.15647072  0.59828364  0.04828196     0.06400
H356        H  0.09511727  0.60554140  0.26194665     0.05400
H357        H  0.09743154  0.64032355  0.22041540    -0.00400
H358        H  0.12744982  0.62085625  0.20997599     0.01100
H359        H  0.96229584  0.49091161  0.09493412     0.04700
H360        H  0.99426859  0.47251754  0.09503103     0.06700
H361        H  0.99908360  0.50798228  0.05334643     0.07600
C362        C  0.38647213  0.91518951  0.25985451    -0.22100
C363        C  0.39008340  0.90363056  0.30755963     0.09900
C364        C  0.42620138  0.91935611  0.32807824     0.10300
C365        C  0.45774003  0.94599104  0.30052294    -0.17000
C366        C  0.45489253  0.95945200  0.25275129    -0.27400
C367        C  0.41780142  0.94189357  0.23172350     0.18600
C368        C  0.35562047  0.87352229  0.33369262     0.12600
C369        C  0.43153835  0.90791467  0.37929761    -0.11800
H370        H  0.48504234  0.95585981  0.31681444     0.12900
C371        C  0.41046204  0.94723579  0.17801572    -0.22600
H372        H  0.35866235  0.90209658  0.24373994     0.08500
C373        C  0.32898813  0.88073630  0.35651443     0.04900
C374        C  0.29435216  0.85088141  0.37369314    -0.19800
C375        C  0.28468589  0.81348541  0.36719554    -0.12100
C376        C  0.31267627  0.80651712  0.34785133     0.13600
C377        C  0.34773169  0.83656052  0.33174182    -0.22500
C378        C  0.33647835  0.91991455  0.36082814    -0.05600
H379        H  0.27317858  0.85663875  0.38812779     0.15100
C380        C  0.30593000  0.76782506  0.34070514    -0.15800
H381        H  0.36829611  0.83089459  0.31484363     0.09400
H382        H  0.41328541  0.97472667  0.17182913     0.07300
H383        H  0.38141848  0.92645209  0.16672178     0.08500
H384        H  0.42962431  0.94351851  0.15279430     0.07500
H385        H  0.42191562  0.87778953  0.37985160     0.02400
H386        H  0.41491437  0.91355143  0.40704498     0.02900
H387        H  0.46146684  0.92340266  0.39069994     0.06400
H388        H  0.31293932  0.92083999  0.37992521     0.05400
H389        H  0.34016436  0.93242759  0.32310227    -0.00400
H390        H  0.36242152  0.93686403  0.38263822     0.01100
H391        H  0.30882305  0.76318728  0.30050793     0.04700
H392        H  0.27774734  0.74593149  0.35365650     0.06700
H393        H  0.32713272  0.76464558  0.36199666     0.07600
C394        C  0.31595306  0.12482299  0.07233889    -0.22100
C395        C  0.30553858  0.12573302  0.02296045     0.09900
C396        C  0.33859489  0.11636176  0.30022795     0.10300
C397        C  0.37635056  0.13778491  0.31423701    -0.17000
C398        C  0.37809339  0.17724766  0.05504945    -0.27400
C399        C  0.35175272  0.15080717  0.08919794     0.18600
C400        C  0.26585586  0.10211590  0.00999611     0.12600
C401        C  0.32617873  0.08212461  0.26903322    -0.11800
H402        H  0.39631016  0.12973778  0.30180311     0.12900
C403        C  0.35995327  0.15011290  0.14380430    -0.22600
H404        H  0.29547119  0.10460755  0.09836168     0.08500
C405        C  0.24310480  0.08209731  0.32732769     0.04900
C406        C  0.20648540  0.06561324  0.30825265    -0.19800
C407        C  0.19059215  0.06538442  0.97933770    -0.12100
C408        C  0.20354087  0.09422633  0.01573191     0.13600
C409        C  0.24107967  0.11231717  0.02966215    -0.22500
C410        C  0.24921110  0.07214498  0.37907904    -0.05600
H411        H  0.18272336  0.04612005  0.33104025     0.15100
C412        C  0.17898383  0.10702625  0.04055980    -0.15800
H413        H  0.25164040  0.13541600  0.05547179     0.09400
H414        H  0.35810406  0.12330981  0.15326684     0.07300
H415        H  0.33890642  0.15290886  0.16651401     0.08500
H416        H  0.38803082  0.17315847  0.15452374     0.07500
H417        H  0.31488761  0.08513619  0.23299525     0.02400
H418        H  0.30392526  0.05740697  0.28935676     0.02900
H419        H  0.34980262  0.07727839  0.26075598     0.06400
H420        H  0.22232836  0.05143799  0.39734087     0.05400
H421        H  0.26254249  0.09740828  0.40260060    -0.00400
H422        H  0.26787551  0.06016764  0.37718305     0.01100
H423        H  0.19416873  0.12825559  0.06969588     0.04700
H424        H  0.15472731  0.08313940  0.05937684     0.06700
H425        H  0.16935647  0.12001441  0.01267025     0.07600
C426        C  0.50957270  0.06350259  0.12330394    -0.22100
C427        C  0.49577742  0.08342929  0.14931959     0.09900
C428        C  0.47135691  0.06529975  0.19012177     0.10300
C429        C  0.46860936  0.03270257  0.20996295    -0.17000
C430        C  0.48727281  0.01510226  0.18894416    -0.27400
C431        C  0.50110182  0.02760115  0.13904562     0.18600
C432        C  0.50096708  0.11932355  0.12831501     0.12600
C433        C  0.44577995  0.07841323  0.21034828    -0.11800
H434        H  0.44878131  0.01915484  0.23998882     0.12900
C435        C  0.49803833  0.00221319  0.09708496    -0.22600
H436        H  0.52374509  0.07432267  0.08774888     0.08500
C437        C  0.51613241  0.15276259  0.15624557     0.04900
C438        C  0.51220443  0.18266353  0.13875404    -0.19800
C439        C  0.49539653  0.18086596  0.09265978    -0.12100
C440        C  0.48569141  0.14968267  0.06173388     0.13600
C441        C  0.48766372  0.11918248  0.08028461    -0.22500
C442        C  0.53623921  0.15760978  0.20479722    -0.05600
H443        H  0.52024784  0.20645923  0.16260838     0.15100
C444        C  0.47037291  0.12112003  0.33201906    -0.15800
H445        H  0.47700978  0.09437612  0.05775924     0.09400
H446        H  0.52556356  0.01200930  0.07840253     0.07300
H447        H  0.47875243  0.00233512  0.06850049     0.08500
H448        H  0.48542832  0.97308365  0.10864315     0.07500
H449        H  0.42732917  0.07797710  0.18010253     0.02400
H450        H  0.46215418  0.10701141  0.22476493     0.02900
H451        H  0.42751329  0.06035731  0.24127878     0.06400
H452        H  0.52158222  0.16344392  0.23529813     0.05400
H453        H  0.56538413  0.18152531  0.20134065    -0.00400
H454        H  0.53803571  0.13282125  0.21526692     0.01100
H455        H  0.48704393  0.11364197  0.30708308     0.04700
H456        H  0.46861628  0.14359707  0.31246809     0.06700
H457        H  0.44164951  0.09671377  0.33694014     0.07600
C458        C  0.49216618  0.39749668  0.30511271    -0.22100
C459        C  0.52591931  0.39940777  0.31704108     0.09900
C460        C  0.55907276  0.43418707  0.31507304     0.10300
C461        C  0.55774403  0.46575539  0.29920207    -0.17000
C462        C  0.52455198  0.46430793  0.28102223    -0.27400
C463        C  0.49033710  0.42842406  0.28685227     0.18600
C464        C  0.52527533  0.36378360  0.32816642     0.12600
C465        C  0.59639724  0.43774668  0.32683025    -0.11800
H466        H  0.58429860  0.49145780  0.29603912     0.12900
C467        C  0.45109077  0.41937520  0.27300873    -0.22600
H468        H  0.46680399  0.37044969  0.30801365     0.08500
C469        C  0.51946176  0.34890556  0.37705116     0.04900
C470        C  0.51278008  0.31257794  0.38464091    -0.19800
C471        C  0.51026027  0.28993215  0.34437027    -0.12100
C472        C  0.51738532  0.30525513  0.29546533     0.13600
C473        C  0.52518119  0.34200297  0.28809549    -0.22500
C474        C  0.51776836  0.37037998  0.42094161    -0.05600
H475        H  0.46306143  0.30755988  0.11260560     0.15100
C476        C  0.51532355  0.28296962  0.25011450    -0.15800
H477        H  0.52923437  0.35305669  0.25043110     0.09400
H478        H  0.44180549  0.43480879  0.29664954     0.07300
H479        H  0.42973887  0.38975377  0.28016114     0.08500
H480        H  0.44863652  0.42331356  0.23273600     0.07500
H481        H  0.60196758  0.42037430  0.30073641     0.02400
H482        H  0.59602427  0.42829574  0.36556410     0.02900
H483        H  0.61993656  0.46691501  0.32325738     0.06400
H484        H  0.46965827  0.37118603  0.13170846     0.05400
H485        H  0.49476142  0.37645947  0.41563373    -0.00400
H486        H  0.54480683  0.39673093  0.42409170     0.01100
H487        H  0.49263373  0.28020039  0.22527722     0.04700
H488        H  0.50966685  0.25471353  0.25978721     0.06700
H489        H  0.54250279  0.29749628  0.22935004     0.07600
C490        C  0.13070051  0.24552165  0.18822232    -0.22100
C491        C  0.16346182  0.25821973  0.21622954     0.09900
C492        C  0.17625731  0.23359183  0.22796189     0.10300
C493        C  0.15420444  0.19606204  0.21510557    -0.17000
C494        C  0.11906628  0.18219896  0.19183814    -0.27400
C495        C  0.10849501  0.20793627  0.17520095     0.18600
C496        C  0.17854893  0.29413541  0.24235482     0.12600
C497        C  0.21160608  0.24614645  0.25751369    -0.11800
H498        H  0.16345021  0.17709731  0.22666643     0.12900
C499        C  0.06078761  0.18237660  0.92680803    -0.22600
H500        H  0.11223398  0.24780420  0.96663363     0.08500
C501        C  0.21358741  0.32593936  0.23056051     0.04900
C502        C  0.22644294  0.35781416  0.26009130    -0.19800
C503        C  0.20468899  0.35885011  0.30008059    -0.12100
C504        C  0.17894411  0.32536019  0.07602808     0.13600
C505        C  0.15752070  0.28731240  0.06600948    -0.22500
C506        C  0.23724887  0.32767455  0.18630326    -0.05600
H507        H  0.25292469  0.38256639  0.25057823     0.15100
C508        C  0.16516630  0.34114217  0.11606907    -0.15800
H509        H  0.13113171  0.27035988  0.08575977     0.09400
H510        H  0.07424599  0.18104945  0.11119331     0.07300
H511        H  0.06269403  0.20888264  0.91527829     0.08500
H512        H  0.03233412  0.16430249  0.94316701     0.07500
H513        H  0.20938805  0.25765107  0.29390723     0.02400
H514        H  0.23625643  0.26776814  0.23635005     0.02900
H515        H  0.21669238  0.22288090  0.26516558     0.06400
H516        H  0.24154154  0.35064419  0.16100025     0.05400
H517        H  0.22402444  0.30161717  0.16442052    -0.00400
H518        H  0.26511519  0.33319482  0.19923209     0.01100
H519        H  0.13723349  0.33685457  0.10577458     0.04700
H520        H  0.18450238  0.37121467  0.12234435     0.06700
H521        H  0.16247380  0.32676245  0.15199705     0.07600
C522        C  0.39341138  0.49806286  0.10065950    -0.22100
C523        C  0.39319626  0.47833729  0.14359411     0.09900
C524        C  0.35806592  0.45252655  0.16553554     0.10300
C525        C  0.32471777  0.44709042  0.14413992    -0.17000
C526        C  0.32452767  0.46426878  0.09886556    -0.27400
C527        C  0.35960700  0.49075863  0.07740543     0.18600
C528        C  0.42949456  0.48516942  0.16606575     0.12600
C529        C  0.35512990  0.42846451  0.20957059    -0.11800
H530        H  0.29805075  0.42688140  0.16107662     0.12900
C531        C  0.36170343  0.51020286  0.02910861    -0.22600
H532        H  0.42019074  0.51865693  0.08451317     0.08500
C533        C  0.45524374  0.47762046  0.14133320     0.04900
C534        C  0.48840124  0.48414141  0.16579383    -0.19800
C535        C  0.49361783  0.49081571  0.21801860    -0.12100
C536        C  0.46595313  0.49726674  0.24222525     0.13600
C537        C  0.43699524  0.49731343  0.21512043    -0.22500
C538        C  0.44696654  0.46107542  0.08994620    -0.05600
H539        H  0.50964956  0.48342339  0.14309132     0.15100
C540        C  0.46487412  0.50432669  0.29696686    -0.15800
H541        H  0.41816364  0.50457754  0.23388065     0.09400
H542        H  0.39125878  0.52875413  0.01660004     0.07300
H543        H  0.34868508  0.52764550  0.03403566     0.08500
H544        H  0.34685435  0.48943268  0.99939725     0.07500
H545        H  0.36693145  0.44546869  0.24350316     0.02400
H546        H  0.37041323  0.41351137  0.20104540     0.02900
H547        H  0.32545567  0.40727770  0.21843432     0.06400
H548        H  0.46863976  0.45456099  0.07716649     0.05400
H549        H  0.44583323  0.48060435  0.06295986    -0.00400
H550        H  0.41949522  0.43468247  0.09036602     0.01100
H551        H  0.47386912  0.53394628  0.30352477     0.04700
H552        H  0.48160841  0.49585381  0.31923271     0.06700
H553        H  0.43541876  0.48703440  0.31007899     0.07600
C554        C  0.06896144  0.47870878  0.29846956    -0.22100
C555        C  0.09621540  0.48371354  0.26256609     0.09900
C556        C  0.08789201  0.48703197  0.21215780     0.10300
C557        C  0.05211548  0.48106473  0.19961171    -0.17000
C558        C  0.02526609  0.47883481  0.23548298    -0.27400
C559        C  0.03633295  0.48039027  0.28661984     0.18600
C560        C  0.13100526  0.48219410  0.27813164     0.12600
C561        C  0.11663915  0.49966814  0.17035698    -0.11800
H562        H  0.04644751  0.48175892  0.16031835     0.12900
C563        C  0.01793073  0.48786853  0.33004954    -0.22600
H564        H  0.07409821  0.47521153  0.33710584     0.08500
C565        C  0.15152343  0.49786343  0.32306036     0.04900
C566        C  0.17841033  0.48839438  0.33938238    -0.19800
C567        C  0.18911897  0.46763510  0.30915270    -0.12100
C568        C  0.17387149  0.45875099  0.26026764     0.13600
C569        C  0.14289771  0.46240429  0.24802708    -0.22500
C570        C  0.14699694  0.52556384  0.35394212    -0.05600
H571        H  0.22386909  0.50278015  0.06120121     0.15100
C572        C  0.18982131  0.44558608  0.21942464    -0.15800
H573        H  0.12838253  0.44993695  0.21370281     0.09400
H574        H  0.03532299  0.49444453  0.36405634     0.07300
H575        H  0.99068790  0.46339372  0.33992641     0.08500
H576        H  0.01543537  0.51262984  0.32258562     0.07500
H577        H  0.10885879  0.47659752  0.14367426     0.02400
H578        H  0.14560608  0.51017841  0.18377887     0.02900
H579        H  0.11725182  0.52317225  0.15003669     0.06400
H580        H  0.21169838  0.55700477  0.03444134     0.05400
H581        H  0.13455608  0.51326818  0.39096179    -0.00400
H582        H  0.12948896  0.53522507  0.33553417     0.01100
H583        H  0.16892525  0.41661876  0.20889939     0.04700
H584        H  0.21645589  0.44708712  0.23020750     0.06700
H585        H  0.19638898  0.46376001  0.18603429     0.07600
C586        C  0.84296291  0.04676371  0.02510467    -0.22100
C587        C  0.86360061  0.07647478  0.05735083     0.12300
C588        C  0.92456983  0.13851488  0.28430244     0.10300
C589        C  0.94028135  0.11764244  0.26634574    -0.17000
C590        C  0.89656883  0.03793771  0.01488122    -0.27400
C591        C  0.85888580  0.02722369  0.00366959     0.18600
C592        C  0.84871582  0.10126838  0.06864708     0.12600
C593        C  0.94940751  0.17563967  0.30823931    -0.11800
H594        H  0.97009603  0.12826480  0.27089128     0.12900
C595        C  0.83609218  0.99716696  0.96655830    -0.22600
H596        H  0.81504525  0.04037572  0.01429575     0.08500
C597        C  0.85404768  0.16197129  0.26585006     0.04900
C598        C  0.83288763  0.17691536  0.28542314    -0.19800
C599        C  0.81390131  0.14382695  0.08294195    -0.12100
C600        C  0.80190223  0.11098611  0.11145434     0.13600
C601        C  0.81963368  0.09013055  0.10396710    -0.22500
C602        C  0.86287361  0.16529045  0.21071842    -0.05600
H603        H  0.82238856  0.19011918  0.26067387     0.15100
C604        C  0.77089024  0.09734728  0.15017134    -0.15800
H605        H  0.81030808  0.06470351  0.12514603     0.09400
H606        H  0.85094927  0.00451090  0.92999926     0.07300
H607        H  0.80781850  0.99366640  0.96100292     0.08500
H608        H  0.83195598  0.97013021  0.97990025     0.07500
H609        H  0.94027700  0.17509672  0.34748766     0.02400
H610        H  0.94757386  0.19765559  0.28729396     0.02900
H611        H  0.97930253  0.18290190  0.30839901     0.06400
H612        H  0.85055478  0.17986022  0.19060166     0.05400
H613        H  0.85144744  0.13732076  0.19423688    -0.00400
H614        H  0.89380683  0.18115202  0.20474851     0.01100
H615        H  0.74716052  0.06989205  0.13885290     0.04700
H616        H  0.76015633  0.11666900  0.15573508     0.06700
H617        H  0.78152002  0.09415800  0.18668495     0.07600
C618        C  0.90083713  0.40660481  0.14374436    -0.22100
C619        C  0.90737988  0.37694158  0.13982595     0.09900
C620        C  0.94262101  0.38271074  0.15470096     0.10300
C621        C  0.96974047  0.41729565  0.17462132    -0.17000
C622        C  0.96351277  0.44773957  0.18091575    -0.27400
C623        C  0.92779100  0.44144339  0.16319245     0.18600
C624        C  0.87622297  0.33948965  0.12304541     0.12600
C625        C  0.95104537  0.35151788  0.15212616    -0.11800
H626        H  0.99490904  0.41873790  0.18815648     0.12900
C627        C  0.91552562  0.46989884  0.16545866    -0.22600
H628        H  0.87382523  0.40231988  0.13198243     0.08500
C629        C  0.84456388  0.31706060  0.15394295     0.04900
C630        C  0.81745752  0.28084599  0.13890465    -0.19800
C631        C  0.82109921  0.26607462  0.09356961    -0.12100
C632        C  0.85213712  0.28899471  0.06174850     0.13600
C633        C  0.87901114  0.32530591  0.07669171    -0.22500
C634        C  0.84059752  0.33053009  0.20429301    -0.05600
H635        H  0.79436123  0.26321008  0.16392632     0.15100
C636        C  0.84832685  0.30655044  0.32575660    -0.15800
H637        H  0.90287080  0.34237854  0.05242094     0.09400
H638        H  0.89568532  0.46299433  0.19704154     0.07300
H639        H  0.90096272  0.46944734  0.13053025     0.08500
H640        H  0.93926244  0.49860843  0.16897630     0.07500
H641        H  0.95017650  0.34282417  0.11280468     0.02400
H642        H  0.92992349  0.32744897  0.17461531     0.02900
H643        H  0.97934145  0.35991860  0.16679269     0.06400
H644        H  0.81538385  0.30907555  0.22491283     0.05400
H645        H  0.83796216  0.35558476  0.20025906    -0.00400
H646        H  0.86593299  0.33754441  0.22634169     0.01100
H647        H  0.84673380  0.32991738  0.30864163     0.04700
H648        H  0.82496999  0.28035917  0.31062223     0.06700
H649        H  0.87546659  0.30874289  0.31502747     0.07600
C650        C  0.64247060  0.09705070  0.37304744    -0.22100
C651        C  0.62756049  0.10002372  0.32753382     0.09900
C652        C  0.64722025  0.13373141  0.30018376     0.10300
C653        C  0.68243160  0.16240158  0.31700247    -0.17000
C654        C  0.69850466  0.15850884  0.36099076    -0.27400
C655        C  0.67755284  0.12565543  0.38997814     0.18600
C656        C  0.59189639  0.06751677  0.30842528     0.12600
C657        C  0.63177202  0.13874714  0.25197809    -0.11800
H658        H  0.69854730  0.18706145  0.29410583     0.12900
C659        C  0.66987094  0.14048322  0.12826133    -0.22600
H660        H  0.62711618  0.07177506  0.39490833     0.08500
C661        C  0.59012441  0.03495511  0.28998795     0.04900
C662        C  0.55650337  0.00681104  0.26839301    -0.19800
C663        C  0.52456526  0.01081105  0.26195573    -0.12100
C664        C  0.52449033  0.03885448  0.29306760     0.13600
C665        C  0.55860934  0.06849247  0.31074705    -0.22500
C666        C  0.62406622  0.03039017  0.29131119    -0.05600
H667        H  0.55608242  0.98217425  0.25516202     0.15100
C668        C  0.49009699  0.03609961  0.31729944    -0.15800
H669        H  0.55868834  0.09146209  0.32979898     0.09400
H670        H  0.66201564  0.11521287  0.15088409     0.07300
H671        H  0.64994735  0.15032190  0.13679173     0.08500
H672        H  0.69831199  0.16257220  0.13949973     0.07500
H673        H  0.60460437  0.13749469  0.25919796     0.02400
H674        H  0.62712686  0.11631402  0.22567216     0.02900
H675        H  0.65124599  0.16593826  0.23397878     0.06400
H676        H  0.61842217  0.00393383  0.27385607     0.05400
H677        H  0.63234440  0.03021190  0.33056157    -0.00400
H678        H  0.64779414  0.05367826  0.27068662     0.01100
H679        H  0.49368003  0.03733627  0.35823358     0.04700
H680        H  0.46381968  0.00983881  0.31158188     0.06700
H681        H  0.48685885  0.05967755  0.30530553     0.07600
C682        C  0.79711713  0.24114447  0.39176841     0.03500
C683        C  0.79371464  0.23132136  0.72614327    -0.12600
C684        C  0.77648755  0.19317491  0.71198138     0.01000
C685        C  0.79898374  0.17700750  0.70733376    -0.11100
C686        C  0.80173744  0.19020349  0.35487778     0.03500
C687        C  0.81870138  0.22570891  0.37538872    -0.10600
H688        H  0.77694435  0.24451364  0.72911445     0.09100
H689        H  0.78638888  0.14830088  0.69557937     0.06600
H690        H  0.84909325  0.24166447  0.37809230     0.06500
C691        C  0.20943681  0.43438615  0.65176227     0.03500
C692        C  0.19851088  0.39917897  0.63225347    -0.12600
C693        C  0.21697302  0.39486973  0.32439978     0.01000
C694        C  0.24997752  0.41262744  0.35176286    -0.11100
C695        C  0.26265772  0.44794531  0.37254104     0.03500
C696        C  0.24289272  0.46703668  0.36062899    -0.10600
H697        H  0.17280024  0.38442819  0.61111293     0.09100
H698        H  0.26548683  0.39836583  0.35790759     0.06600
H699        H  0.25289243  0.49482583  0.37449531     0.06500
C700        C  0.48556320  0.19150028  0.38548917     0.03500
C701        C  0.44638677  0.17348269  0.37892732    -0.12600
C702        C  0.42740868  0.18678541  0.66144938     0.01000
C703        C  0.44319521  0.22525315  0.66113141    -0.11100
C704        C  0.47477818  0.24810306  0.68990010     0.03500
C705        C  0.49154135  0.23150048  0.71856824    -0.10600
H706        H  0.42896238  0.14449343  0.38956966     0.09100
H707        H  0.43044748  0.23752346  0.63868311     0.06600
H708        H  0.51645813  0.24881141  0.74012062     0.06500
C709        C  0.26976646  0.79420140  0.67995860     0.03500
C710        C  0.24826631  0.79931654  0.64412874    -0.12600
C711        C  0.18409041  0.76817254  0.32492702     0.01000
C712        C  0.16535053  0.73633380  0.35534940    -0.11100
C713        C  0.18467864  0.72883600  0.39257759     0.03500
C714        C  0.22414805  0.75339187  0.39742000    -0.10600
H715        H  0.26194403  0.82328654  0.61941626     0.09100
H716        H  0.13551681  0.71747756  0.35063749     0.06600
H717        H  0.23941364  0.74832280  0.42604891     0.06500
C718        C  0.79632524  0.51565823  0.73538834     0.03500
C719        C  0.81777691  0.55389299  0.72652829    -0.12600
C720        C  0.78438203  0.57282006  0.31963402     0.01000
C721        C  0.74954983  0.55977931  0.34326229    -0.11100
C722        C  0.73589926  0.53103562  0.37938061     0.03500
C723        C  0.75547397  0.51105908  0.38437069    -0.10600
H724        H  0.84656577  0.56579890  0.71329398     0.09100
H725        H  0.73441338  0.57415925  0.33575226     0.06600
H726        H  0.74551128  0.48808106  0.41046729     0.06500
C727        C  0.58739679  0.81596461  0.37744602     0.03500
C728        C  0.61957225  0.83948023  0.34880805    -0.12600
C729        C  0.61713997  0.79984710  0.72406347     0.01000
C730        C  0.59673525  0.76257989  0.71056390    -0.11100
C731        C  0.55751810  0.74398588  0.70586521     0.03500
C732        C  0.53813585  0.76243682  0.72140487    -0.10600
H733        H  0.62959873  0.86900662  0.34634877     0.09100
H734        H  0.61196561  0.74888826  0.69896016     0.06600
H735        H  0.50784891  0.74866692  0.71844509     0.06500
O736        O  0.05534931  0.96725327  0.22727405    -0.87900
C737        C  0.06629806  0.02872086  0.44771327     0.88100
Mg738      Mg  0.01344740  0.91070703  0.21384710     1.58100
O739        O  0.02814758  0.04886195  0.23630676    -0.87700
O740        O  0.06920649  0.00982524  0.28399376    -0.75000
C741        C  0.88095572  0.90505925  0.59664957     0.93100
O742        O  0.03916281  0.93953395  0.44701477    -0.74800
O743        O  0.89248654  0.88394953  0.58012300    -0.82300
Mg744      Mg  0.09842694  0.98213773  0.47575666     1.58000
C745        C  0.93591563  0.06173573  0.22601561     0.93100
O746        O  0.14518327  0.02769543  0.22146515    -0.80600
H747        H  0.02441421  0.05014683  0.31066760    -0.05900
C748        C  0.95756554  0.97786461  0.50095153     0.88000
O749        O  0.97092017  0.91620042  0.26330174    -0.75100
O750        O  0.08256390  0.02368909  0.48275994    -0.87900
O751        O  0.97083266  0.07915658  0.21435811    -0.80700
C752        C  0.09630466  0.12965783  0.50301893     0.93200
C753        C  0.16143475  0.05924722  0.24277598     0.93000
Mg754      Mg  0.93098472  0.98160500  0.21791374     1.58000
O755        O  0.90204200  0.94014577  0.59785165    -0.80600
O756        O  0.97564547  0.01320752  0.27733508    -0.74800
O757        O  0.11367541  0.11169955  0.49955790    -0.80700
O758        O  0.11609933  0.93904383  0.47143260    -0.82400
O759        O  0.91962594  0.85454141  0.17764035    -0.80700
C760        C  0.01010061  0.03843671  0.27598890     0.87500
O761        O  0.94519100  0.93902478  0.21469320    -0.87800
O762        O  0.97719757  0.99572670  0.53662400    -0.88000
O763        O  0.94586346  0.94340859  0.49599967    -0.75000
Mg764      Mg  0.08555934  0.06343289  0.24046306     1.58000
O765        O  0.06147920  0.11322151  0.51358830    -0.82400
H766        H  0.05516824  0.95676042  0.30017040    -0.06100
O767        O  0.00314996  0.91409739  0.51308983    -0.87700
H768        H  0.98414212  0.89909791  0.44359449    -0.05900
H769        H  0.92850173  0.92437745  0.28552780    -0.06100
C770        C  0.00767419  0.91655422  0.46719329     0.87400
C771        C  0.06007413  0.97700158  0.27142484     0.88000
C772        C  0.94694891  0.92608857  0.25539283     0.88100
H773        H  0.95097435  0.99211685  0.47262727    -0.06100
O774        O  0.04173740  0.03813407  0.45508539    -0.75100
Mg775      Mg  0.94903154  0.89941418  0.54435122     1.58000
H776        H  0.07257365  0.02430100  0.40992104    -0.06100
C777        C  0.09823883  0.90475235  0.48287098     0.93100
O778        O  0.96879220  0.85075020  0.20246569    -0.82300
C779        C  0.93396519  0.83547786  0.19306656     0.93100
O780        O  0.14599013  0.07876740  0.24789465    -0.82300
Mg781      Mg  0.01800648  0.05292158  0.52409589     1.58200
O782        O  0.06505494  0.88936597  0.50118204    -0.80700
O783        O  0.91613380  0.02650646  0.22389533    -0.82400
C784        C  0.99260746  0.48030434  0.56015445    -0.02100
C785        C  0.52631196  0.99702999  0.56274800    -0.02100
C786        C  0.49565739  0.48934994  0.56854263    -0.02100
C787        C  0.71037537  0.86101004  0.65902318    -0.22100
C788        C  0.73214970  0.84747968  0.67989018     0.09900
C789        C  0.73376127  0.86864332  0.26189954     0.10300
C790        C  0.70606515  0.85731401  0.29916391    -0.17000
C791        C  0.65796562  0.82060606  0.71362825    -0.27400
C792        C  0.67309645  0.84726025  0.67451961     0.18600
C793        C  0.76999959  0.86043355  0.65861763     0.12600
C794        C  0.77346007  0.88017988  0.27648898    -0.11800
H795        H  0.71260298  0.85430254  0.33737793     0.12900
C796        C  0.64941802  0.85932598  0.64651426    -0.22600
H797        H  0.72216644  0.88122956  0.62887930     0.08500
C798        C  0.76337206  0.84994169  0.16213017     0.04900
C799        C  0.79988448  0.86317997  0.14362592    -0.19800
C800        C  0.84289693  0.88901618  0.61855644    -0.12100
C801        C  0.83771846  0.89967032  0.66690416     0.13600
C802        C  0.80126577  0.88558780  0.68600452    -0.22500
C803        C  0.73899298  0.80947647  0.17603840    -0.05600
H804        H  0.81127090  0.84477019  0.14346446     0.15100
C805        C  0.87054436  0.92468524  0.69947265    -0.15800
H806        H  0.79704602  0.89419088  0.72251085     0.09400
H807        H  0.62449207  0.83469529  0.63062439     0.07300
H808        H  0.66532242  0.87851907  0.61514571     0.08500
H809        H  0.64007155  0.87415746  0.67184924     0.07500
H810        H  0.79302426  0.90883965  0.26272102     0.02400
H811        H  0.78194932  0.86100485  0.26043339     0.02900
H812        H  0.77638388  0.87994969  0.31764371     0.06400
H813        H  0.75289605  0.79334055  0.16655096     0.05400
H814        H  0.71220733  0.79744985  0.15526315    -0.00400
H815        H  0.73258892  0.80620768  0.21665507     0.01100
H816        H  0.86117418  0.92823025  0.73694200     0.04700
H817        H  0.88714435  0.95262808  0.68230355     0.06700
H818        H  0.88881467  0.91251035  0.70461587     0.07600
C819        C  0.56862347  0.86530919  0.48416926    -0.22100
C820        C  0.55836457  0.88803911  0.45784011     0.09900
C821        C  0.55241588  0.88266722  0.40588318     0.10300
C822        C  0.55875614  0.85637806  0.38124665    -0.17000
C823        C  0.57059467  0.83468035  0.40709521    -0.27400
C824        C  0.57484250  0.83885068  0.45950830     0.18600
C825        C  0.55160730  0.91556512  0.48563562     0.12600
C826        C  0.53951319  0.90487238  0.37634584    -0.11800
H827        H  0.55839942  0.85460594  0.68760851     0.12900
C828        C  0.58749346  0.81651682  0.48917858    -0.22600
H829        H  0.57238457  0.86874407  0.52419155     0.08500
C830        C  0.51834138  0.90373155  0.51306883     0.04900
C831        C  0.51214830  0.92984028  0.53791358    -0.19800
C832        C  0.53704948  0.96930703  0.53488472    -0.12100
C833        C  0.57180588  0.98064652  0.50792869     0.13600
C834        C  0.57818711  0.95379085  0.48420904    -0.22500
C835        C  0.48859006  0.86302830  0.51567007    -0.05600
H836        H  0.48675817  0.91765728  0.55987171     0.15100
C837        C  0.60351037  0.02050864  0.50293023    -0.15800
H838        H  0.60422584  0.96293504  0.46367914     0.09400
H839        H  0.56689199  0.78641307  0.48514028     0.07300
H840        H  0.58981874  0.82331858  0.52955263     0.08500
H841        H  0.61547022  0.82235234  0.47546690     0.07500
H842        H  0.56052894  0.93497443  0.37893282     0.02400
H843        H  0.51210115  0.89976789  0.39139688     0.02900
H844        H  0.55484217  0.90753162  0.67084090     0.06400
H845        H  0.46346892  0.85809089  0.53762238     0.05400
H846        H  0.50013486  0.84698134  0.53360816    -0.00400
H847        H  0.47920172  0.85232490  0.47740168     0.01100
H848        H  0.62847200  0.02393248  0.52306957     0.04700
H849        H  0.59635209  0.04096420  0.51749081     0.06700
H850        H  0.61196628  0.02748475  0.46322854     0.07600
C851        C  0.51808049  0.57283937  0.66247113    -0.22100
C852        C  0.51555302  0.59760420  0.62918992     0.09900
C853        C  0.51144186  0.58847866  0.57799257     0.10300
C854        C  0.51098811  0.55629879  0.56204181    -0.17000
C855        C  0.50787754  0.52813771  0.59519628    -0.27400
C856        C  0.51336335  0.53806917  0.64725171     0.18600
C857        C  0.52199829  0.63467877  0.64745718     0.12600
C858        C  0.50562059  0.61092694  0.53856643    -0.11800
H859        H  0.50942764  0.55139079  0.52215797     0.12900
C860        C  0.51569015  0.51449384  0.68824496    -0.22600
H861        H  0.52455747  0.58115312  0.70105339     0.08500
C862        C  0.50143314  0.63864491  0.68760426     0.04900
C863        C  0.51140842  0.67467243  0.70470548    -0.19800
C864        C  0.53964093  0.70685677  0.68053300    -0.12100
C865        C  0.55615299  0.70241747  0.63628980     0.13600
C866        C  0.54931773  0.66709531  0.62283830    -0.22500
C867        C  0.46843734  0.60525723  0.71176161    -0.05600
H868        H  0.49796264  0.67765904  0.73789110     0.15100
C869        C  0.58124952  0.73458961  0.60214762    -0.15800
H870        H  0.56493209  0.66485627  0.59158997     0.09400
H871        H  0.51534402  0.52553174  0.72586252     0.07300
H872        H  0.54271865  0.51500182  0.68551967     0.08500
H873        H  0.49153065  0.48584771  0.68804130     0.07500
H874        H  0.53070149  0.62448637  0.51358427     0.02400
H875        H  0.50014513  0.63230916  0.55424982     0.02900
H876        H  0.48062317  0.59223619  0.51601637     0.06400
H877        H  0.45382011  0.61361914  0.73928824     0.05400
H878        H  0.47765073  0.58814870  0.73201435    -0.00400
H879        H  0.44781816  0.58811048  0.68281452     0.01100
H880        H  0.61013804  0.73894763  0.60180953     0.04700
H881        H  0.58250688  0.76083476  0.61307688     0.06700
H882        H  0.57006359  0.72826694  0.56361796     0.07600
C883        C  0.92395548  0.73208781  0.62679690    -0.22100
C884        C  0.86163682  0.71894685  0.22837481     0.09900
C885        C  0.84709107  0.74310040  0.22678948     0.10300
C886        C  0.87093714  0.78057488  0.21321678    -0.17000
C887        C  0.90925442  0.79466459  0.20184479    -0.27400
C888        C  0.94716196  0.76696340  0.60438708     0.18600
C889        C  0.83985183  0.68102533  0.25022138     0.12600
C890        C  0.80657191  0.72938132  0.24018988    -0.11800
H891        H  0.85984248  0.79922943  0.21336091     0.12900
C892        C  0.97353438  0.77026374  0.56270656    -0.22600
H893        H  0.92544062  0.70812955  0.61433639     0.08500
C894        C  0.83755618  0.66614676  0.66008398     0.04900
C895        C  0.81457396  0.62994352  0.67834511    -0.19800
C896        C  0.80368889  0.61013459  0.29606034    -0.12100
C897        C  0.82270611  0.64258757  0.32543262     0.13600
C898        C  0.83963826  0.67753333  0.30219406    -0.22500
C899        C  0.82542427  0.67907220  0.61515907    -0.05600
H900        H  0.78834370  0.61147786  0.65985292     0.15100
C901        C  0.82714231  0.64154381  0.38113147    -0.15800
H902        H  0.85408672  0.70237979  0.32474420     0.09400
H903        H  0.97097322  0.74304275  0.55399464     0.07300
H904        H  0.00307878  0.78957748  0.57355763     0.08500
H905        H  0.96703954  0.78071394  0.52829198     0.07500
H906        H  0.80082381  0.71916876  0.27938699     0.02400
H907        H  0.78799442  0.70631587  0.21499429     0.02900
H908        H  0.79954162  0.75170808  0.23650226     0.06400
H909        H  0.79766827  0.65711633  0.60132115     0.05400
H910        H  0.84636306  0.68663383  0.58444212    -0.00400
H911        H  0.82316101  0.70372228  0.62493900     0.01100
H912        H  0.85751993  0.65667379  0.39026063     0.04700
H913        H  0.81497879  0.61300431  0.39639863     0.06700
H914        H  0.81354833  0.65542568  0.40014900     0.07600
C915        C  0.65937271  0.54421097  0.44273498    -0.22100
C916        C  0.63323909  0.50862372  0.46066062     0.09900
C917        C  0.64238604  0.48011186  0.45480590     0.10300
C918        C  0.67522430  0.48749104  0.42756510    -0.17000
C919        C  0.70198072  0.52371454  0.41125564    -0.27400
C920        C  0.69478979  0.55275382  0.42417193     0.18600
C921        C  0.59832472  0.50368516  0.48723274     0.12600
C922        C  0.61976952  0.44236341  0.47906165    -0.11800
H923        H  0.68024462  0.46480795  0.42033685     0.12900
C924        C  0.72474484  0.59332555  0.42467808    -0.22600
H925        H  0.65359097  0.56665371  0.44776270     0.08500
C926        C  0.60007554  0.52856792  0.52437132     0.04900
C927        C  0.56685513  0.52609372  0.54300606    -0.19800
C928        C  0.53002382  0.49589858  0.53259454    -0.12100
C929        C  0.52923943  0.46890384  0.49826556     0.13600
C930        C  0.56250966  0.47510849  0.47354949    -0.22500
C931        C  0.63643414  0.55672799  0.54860379    -0.05600
H932        H  0.57116371  0.54638063  0.57107486     0.15100
C933        C  0.49493653  0.43191436  0.48762741    -0.15800
H934        H  0.56058374  0.45611869  0.44466596     0.09400
H935        H  0.72432195  0.60547078  0.46141263     0.07300
H936        H  0.71945228  0.60869493  0.39503258     0.08500
H937        H  0.75329210  0.59751216  0.42063325     0.07500
H938        H  0.60864994  0.42045327  0.45017137     0.02400
H939        H  0.59613194  0.43943475  0.50240816     0.02900
H940        H  0.63830288  0.43756296  0.50397333     0.06400
H941        H  0.63345906  0.55306934  0.58980922     0.05400
H942        H  0.64281503  0.58527725  0.53908390    -0.00400
H943        H  0.66067845  0.55359211  0.53792171     0.01100
H944        H  0.48893648  0.42962699  0.44703373     0.04700
H945        H  0.46975538  0.42742584  0.50756866     0.06700
H946        H  0.50008428  0.40929324  0.49910479     0.07600
C947        C  0.90494341  0.44930836  0.65029267    -0.22100
C948        C  0.90635497  0.48287252  0.65978080     0.09900
C949        C  0.93869149  0.51604288  0.64433479     0.10300
C950        C  0.96755635  0.51474194  0.61723279    -0.17000
C951        C  0.96586166  0.48087973  0.60352857    -0.27400
C952        C  0.93363490  0.44753449  0.62335663     0.18600
C953        C  0.87314578  0.48282836  0.68379087     0.12600
C954        C  0.94184896  0.55315905  0.65386930    -0.11800
H955        H  0.98981290  0.54107145  0.60368471     0.12900
C956        C  0.92615342  0.40863158  0.61500896    -0.22600
H957        H  0.88037490  0.42376562  0.66301932     0.08500
C958        C  0.83972543  0.47263205  0.65718609     0.04900
C959        C  0.81150230  0.47805251  0.67876535    -0.19800
C960        C  0.81613331  0.49453260  0.72577169    -0.12100
C961        C  0.84827269  0.50209192  0.75386134     0.13600
C962        C  0.87601114  0.49576911  0.73284208    -0.22500
C963        C  0.83505125  0.45919491  0.60423921    -0.05600
H964        H  0.78758546  0.47316282  0.65657405     0.15100
C965        C  0.85171727  0.54123836  0.42935270    -0.15800
H966        H  0.90107460  0.50295911  0.75394864     0.09400
H967        H  0.90216569  0.39368355  0.58943582     0.07300
H968        H  0.91825976  0.39347927  0.65113409     0.08500
H969        H  0.95083861  0.40770510  0.60067449     0.07500
H970        H  0.94173227  0.55776262  0.69463813     0.02400
H971        H  0.91780465  0.55382959  0.63663771     0.02900
H972        H  0.96821967  0.57657151  0.63795302     0.06400
H973        H  0.80711102  0.45186831  0.58928718     0.05400
H974        H  0.83771781  0.43405540  0.60207572    -0.00400
H975        H  0.85673052  0.48170080  0.58035862     0.01100
H976        H  0.85682829  0.52885922  0.46295313     0.04700
H977        H  0.82780619  0.54550429  0.43796134     0.06700
H978        H  0.87701707  0.56874480  0.42152355     0.07600
C979        C  0.16964152  0.87441953  0.50259466    -0.22100
C980        C  0.14571815  0.83583222  0.50622958     0.09900
C981        C  0.09598274  0.82814319  0.17565417     0.10300
C982        C  0.08449030  0.85301360  0.16060609    -0.17000
C983        C  0.11699888  0.88234876  0.47995444    -0.27400
C984        C  0.15594933  0.89797457  0.48949511     0.18600
C985        C  0.15869560  0.81438385  0.53595080     0.12600
C986        C  0.06887261  0.78688411  0.17298715    -0.11800
H987        H  0.05572879  0.84192687  0.14866477     0.12900
C988        C  0.18283405  0.93938392  0.49054918    -0.22600
H989        H  0.19848787  0.88652055  0.51467786     0.08500
C990        C  0.18921733  0.80999036  0.52121746     0.04900
C991        C  0.20241432  0.79313692  0.55442726    -0.19800
C992        C  0.18790795  0.78315595  0.60340495    -0.12100
C993        C  0.13685166  0.78818225  0.30476569     0.13600
C994        C  0.12597648  0.80724380  0.27211765    -0.22500
C995        C  0.20912917  0.82439318  0.47170633    -0.05600
H996        H  0.22597361  0.78997303  0.54325375     0.15100
C997        C  0.12049479  0.77982230  0.35688181    -0.15800
H998        H  0.10581918  0.81502696  0.28462401     0.09400
H999        H  0.21203108  0.94629159  0.49871898     0.07300
H1000       H  0.17412137  0.95219350  0.52011968     0.08500
H1001       H  0.18337214  0.95180544  0.45365145     0.07500
H1002       H  0.06263668  0.77440680  0.21097420     0.02400
H1003       H  0.08139525  0.77370101  0.14990521     0.02900
H1004       H  0.04182774  0.78055637  0.15594519     0.06400
H1005       H  0.23117410  0.81693595  0.46558785     0.05400
H1006       H  0.22301920  0.85510290  0.47010026    -0.00400
H1007       H  0.18898564  0.81262546  0.44081068     0.01100
H1008       H  0.10097910  0.79048146  0.36329937     0.04700
H1009       H  0.14329495  0.79326761  0.38435278     0.06700
H1010       H  0.10431521  0.74940523  0.36350266     0.07600
C1011       C  0.10787324  0.65867526  0.48162174    -0.22100
C1012       C  0.11102152  0.62704651  0.47561959     0.09900
C1013       C  0.14107739  0.63005447  0.44584619     0.10300
C1014       C  0.16639532  0.66423013  0.42186076    -0.17000
C1015       C  0.16222237  0.69559924  0.42626050    -0.27400
C1016       C  0.13272046  0.69252409  0.45751802     0.18600
C1017       C  0.08047401  0.59071321  0.49725494     0.12600
C1018       C  0.14624510  0.59710948  0.43910133    -0.11800
H1019       H  0.18851842  0.66597180  0.39781527     0.12900
C1020       C  0.12554200  0.72398222  0.46541165    -0.22600
H1021       H  0.08490191  0.65662546  0.50416545     0.08500
C1022       C  0.07786734  0.58184535  0.54832937     0.04900
C1023       C  0.04762554  0.54786267  0.56638087    -0.19800
C1024       C  0.01871492  0.52079541  0.53533325    -0.12100
C1025       C  0.02194446  0.53098415  0.48309493     0.13600
C1026       C  0.05220076  0.56555249  0.46594062    -0.22500
C1027       C  0.10781704  0.60778371  0.58375121    -0.05600
H1028       H  0.04743784  0.54136204  0.60560804     0.15100
C1029       C  0.99602023  0.50682086  0.44263252    -0.15800
H1030       H  0.05439785  0.57313369  0.42679045     0.09400
H1031       H  0.12611973  0.72982033  0.50593395     0.07300
H1032       H  0.09732774  0.71567128  0.45066411     0.08500
H1033       H  0.14653995  0.74988145  0.44657037     0.07500
H1034       H  0.12091511  0.57385175  0.42176927     0.02400
H1035       H  0.15084998  0.58810202  0.47602912     0.02900
H1036       H  0.17089458  0.60391562  0.41477705     0.06400
H1037       H  0.10225541  0.59652883  0.62246772     0.05400
H1038       H  0.10902499  0.63497844  0.58433715    -0.00400
H1039       H  0.13554834  0.61209553  0.57143647     0.01100
H1040       H  0.96765318  0.50232359  0.44767239     0.04700
H1041       H  0.99631588  0.48051515  0.43932614     0.06700
H1042       H  0.00438907  0.52078024  0.40578939     0.07600
C1043       C  0.41879615  0.92627920  0.58856345    -0.22100
C1044       C  0.41904642  0.91495602  0.63744618     0.09900
C1045       C  0.45306464  0.93185039  0.66363472     0.10300
C1046       C  0.48630139  0.95987445  0.64022043    -0.17000
C1047       C  0.48706157  0.97170275  0.59009917    -0.27400
C1048       C  0.45177636  0.95310528  0.56383138     0.18600
C1049       C  0.38342712  0.88325838  0.65828736     0.12600
C1050       C  0.45438082  0.91900075  0.71571790    -0.11800
H1051       H  0.51213557  0.97106464  0.66090111     0.12900
C1052       C  0.44799887  0.95725958  0.50834882    -0.22600
H1053       H  0.39244154  0.91234605  0.56863478     0.08500
C1054       C  0.35698427  0.88908088  0.68443745     0.04900
C1055       C  0.32120776  0.85854037  0.69602329    -0.19800
C1056       C  0.31071093  0.82226413  0.68101746    -0.12100
C1057       C  0.33772803  0.81631230  0.65631569     0.13600
C1058       C  0.37379385  0.84680091  0.64576208    -0.22500
C1059       C  0.36569089  0.92775245  0.69743201    -0.05600
H1060       H  0.30030233  0.86331092  0.71378817     0.15100
C1061       C  0.32878768  0.77862627  0.63782187    -0.15800
H1062       H  0.39391464  0.84234026  0.62514434     0.09400
H1063       H  0.45232185  0.98491828  0.49871304     0.07300
H1064       H  0.41941958  0.93707936  0.49483575     0.08500
H1065       H  0.46752084  0.95150430  0.48708811     0.07500
H1066       H  0.44533708  0.88899793  0.71542870     0.02400
H1067       H  0.43545362  0.92330020  0.74088646     0.02900
H1068       H  0.48306685  0.93437243  0.73111558     0.06400
H1069       H  0.34173188  0.92749519  0.71711075     0.05400
H1070       H  0.37184866  0.94464848  0.66283382    -0.00400
H1071       H  0.39044611  0.94118247  0.72217281     0.01100
H1072       H  0.33207862  0.77951564  0.59655921     0.04700
H1073       H  0.29980907  0.75638477  0.64747802     0.06700
H1074       H  0.34855479  0.77105557  0.65459917     0.07600
C1075       C  0.32496591  0.15856235  0.34601917    -0.22100
C1076       C  0.31282120  0.12723157  0.31572603     0.09900
C1077       C  0.36743443  0.14245497  0.54842270     0.10300
C1078       C  0.39851444  0.16323697  0.57918617    -0.17000
C1079       C  0.38897216  0.16990809  0.34332961    -0.27400
C1080       C  0.36277139  0.18010526  0.36012824     0.18600
C1081       C  0.27368220  0.10794015  0.29750207     0.12600
C1082       C  0.37288974  0.14261982  0.49273583    -0.11800
H1083       H  0.42632253  0.17976100  0.56265778     0.12900
C1084       C  0.37414446  0.21306344  0.39366515    -0.22600
H1085       H  0.30483854  0.16655436  0.35784500     0.08500
C1086       C  0.27256217  0.06543255  0.54013095     0.04900
C1087       C  0.23541571  0.05092800  0.52443368    -0.19800
C1088       C  0.20015652  0.07466932  0.26024741    -0.12100
C1089       C  0.23079190  0.10015937  0.23031336     0.13600
C1090       C  0.26722887  0.11657809  0.24939701    -0.22500
C1091       C  0.28563273  0.03951688  0.55756789    -0.05600
H1092       H  0.21627721  0.02119578  0.52672470     0.15100
C1093       C  0.22497148  0.11017141  0.17835992    -0.15800
H1094       H  0.29083162  0.13665235  0.22700309     0.09400
H1095       H  0.34934278  0.21450502  0.40707412     0.07300
H1096       H  0.39279649  0.23931101  0.37330090     0.08500
H1097       H  0.38899323  0.21109292  0.42681340     0.07500
H1098       H  0.35651119  0.15335075  0.47367939     0.02400
H1099       H  0.36303860  0.11387318  0.47982974     0.02900
H1100       H  0.40290845  0.16036532  0.48162150     0.06400
H1101       H  0.26333047  0.00991218  0.55367888     0.05400
H1102       H  0.29361876  0.04453342  0.59744986    -0.00400
H1103       H  0.31036841  0.04426147  0.53487405     0.01100
H1104       H  0.25201785  0.13032355  0.15992156     0.04700
H1105       H  0.20695754  0.12288917  0.17996060     0.06700
H1106       H  0.21112250  0.08478817  0.15504531     0.07600
C1107       C  0.53709974  0.06770101  0.45385442    -0.22100
C1108       C  0.52143276  0.08700561  0.47712797     0.09900
C1109       C  0.50104123  0.07192741  0.52168223     0.10300
C1110       C  0.50226701  0.04247733  0.54537408    -0.17000
C1111       C  0.52204838  0.02531514  0.52630636    -0.27400
C1112       C  0.53367278  0.03477372  0.47478736     0.18600
C1113       C  0.51887461  0.11705302  0.44939068     0.12600
C1114       C  0.47518371  0.08458518  0.54246281    -0.11800
H1115       H  0.48396850  0.03037115  0.57706835     0.12900
C1116       C  0.53451697  0.00876094  0.43618345    -0.22600
H1117       H  0.54839978  0.07602876  0.41645629     0.08500
C1118       C  0.53604881  0.15434017  0.46601540     0.04900
C1119       C  0.52639803  0.17919412  0.44358910    -0.19800
C1120       C  0.50195775  0.16832544  0.40260770    -0.12100
C1121       C  0.48972701  0.13277651  0.38170729     0.13600
C1122       C  0.49638228  0.10718880  0.40692679    -0.22500
C1123       C  0.56511764  0.16809181  0.50646618    -0.05600
H1124       H  0.53724924  0.20676262  0.45884235     0.15100
C1125       C  0.49941054  0.14424113  0.66081369    -0.15800
H1126       H  0.48322109  0.07902412  0.39374168     0.09400
H1127       H  0.56288400  0.02055023  0.41923301     0.07300
H1128       H  0.51520722  0.00543183  0.40550491     0.08500
H1129       H  0.52387780  0.98015591  0.44904973     0.07500
H1130       H  0.45377109  0.08015981  0.51424109     0.02400
H1131       H  0.49105996  0.11440528  0.55219206     0.02900
H1132       H  0.46011212  0.06887696  0.57671457     0.06400
H1133       H  0.57615223  0.19795476  0.51449054     0.05400
H1134       H  0.58905331  0.16477784  0.49421852    -0.00400
H1135       H  0.55332459  0.15221889  0.54161733     0.01100
H1136       H  0.52533009  0.14405079  0.64968107     0.04700
H1137       H  0.50107643  0.16916859  0.64337616     0.06700
H1138       H  0.47465781  0.11898095  0.64589400     0.07600
C1139       C  0.45891785  0.38799837  0.62637243    -0.22100
C1140       C  0.49212815  0.39224148  0.64615071     0.09900
C1141       C  0.52390750  0.42813912  0.64652035     0.10300
C1142       C  0.52227537  0.45809425  0.62465141    -0.17000
C1143       C  0.48942179  0.45491609  0.60253592    -0.27400
C1144       C  0.45632872  0.41793432  0.60538448     0.18600
C1145       C  0.49295503  0.35828452  0.66420499     0.12600
C1146       C  0.55993361  0.43508220  0.67005682    -0.11800
H1147       H  0.54821474  0.48443831  0.62279618     0.12900
C1148       C  0.41743723  0.40699544  0.58692245    -0.22600
H1149       H  0.43450232  0.36021180  0.62692656     0.08500
C1150       C  0.47105879  0.33638300  0.70545094     0.04900
C1151       C  0.46916567  0.30232065  0.71648385    -0.19800
C1152       C  0.48838495  0.28893721  0.68751692    -0.12100
C1153       C  0.51126031  0.31138808  0.64732812     0.13600
C1154       C  0.51334241  0.34556220  0.63638691    -0.22500
C1155       C  0.44831290  0.34741560  0.73784813    -0.05600
H1156       H  0.50629883  0.30065004  0.42192112     0.15100
C1157       C  0.53231899  0.29911608  0.61357969    -0.15800
H1158       H  0.52969555  0.36158645  0.60422636     0.09400
H1159       H  0.40492852  0.41978898  0.61011770     0.07300
H1160       H  0.39742361  0.37666216  0.59068531     0.08500
H1161       H  0.41698433  0.41288097  0.54684953     0.07500
H1162       H  0.57111563  0.41934712  0.65017551     0.02400
H1163       H  0.55458682  0.42618630  0.70981655     0.02900
H1164       H  0.58192581  0.46495699  0.66865315     0.06400
H1165       H  0.51245802  0.35472487  0.45654581     0.05400
H1166       H  0.41797116  0.32655310  0.73426075    -0.00400
H1167       H  0.45255602  0.37511798  0.72807180     0.01100
H1168       H  0.52171851  0.29607648  0.57490086     0.04700
H1169       H  0.52938248  0.27227285  0.62541133     0.06700
H1170       H  0.56271906  0.32036942  0.61368435     0.07600
C1171       C  0.12382710  0.23111314  0.51685601    -0.22100
C1172       C  0.16203994  0.24666638  0.52745661     0.09900
C1173       C  0.17969286  0.22573498  0.51952989     0.10300
C1174       C  0.15789121  0.18837695  0.50566636    -0.17000
C1175       C  0.11851521  0.17108120  0.50105780    -0.27400
C1176       C  0.10165924  0.19355064  0.50374242     0.18600
C1177       C  0.18124101  0.28253689  0.55398915     0.12600
C1178       C  0.22125657  0.24244768  0.52774891    -0.11800
H1179       H  0.17149569  0.17202505  0.50239448     0.12900
C1180       C  0.07375188  0.19640891  0.14476754    -0.22600
H1181       H  0.12102014  0.26464569  0.17953841     0.08500
C1182       C  0.19406384  0.31674015  0.52923653     0.04900
C1183       C  0.20853236  0.34934278  0.55748592    -0.19800
C1184       C  0.20987894  0.34832094  0.60991011    -0.12100
C1185       C  0.16945821  0.32715453  0.31126402     0.13600
C1186       C  0.15695618  0.29528595  0.28228780    -0.22500
C1187       C  0.19190231  0.31865574  0.47332768    -0.05600
H1188       H  0.21789300  0.37571708  0.53874685     0.15100
C1189       C  0.14437866  0.32581205  0.35352626    -0.15800
H1190       H  0.13010958  0.27079414  0.29128971     0.09400
H1191       H  0.05226184  0.16366345  0.45854818     0.07300
H1192       H  0.07206948  0.22081781  0.13174203     0.08500
H1193       H  0.04807730  0.17887654  0.16749587     0.07500
H1194       H  0.22810363  0.25115507  0.56721345     0.02400
H1195       H  0.23711054  0.26707038  0.50298811     0.02900
H1196       H  0.23072483  0.22236213  0.51936759     0.06400
H1197       H  0.20325753  0.34764709  0.45986360     0.05400
H1198       H  0.16216757  0.30202104  0.46159792    -0.00400
H1199       H  0.20838942  0.30737080  0.45539910     0.01100
H1200       H  0.11776985  0.32209141  0.33816959     0.04700
H1201       H  0.15748590  0.35116915  0.37677482     0.06700
H1202       H  0.13762337  0.30186522  0.37837345     0.07600
C1203       C  0.36300764  0.49947989  0.42619297    -0.22100
C1204       C  0.36037088  0.47360837  0.46233718     0.09900
C1205       C  0.32442318  0.44249342  0.47278292     0.10300
C1206       C  0.29285551  0.43754688  0.44619143    -0.17000
C1207       C  0.29572197  0.46180777  0.40734517    -0.27400
C1208       C  0.33160563  0.49356685  0.39776408     0.18600
C1209       C  0.39528255  0.47858478  0.48776356     0.12600
C1210       C  0.31939424  0.41306924  0.50997507    -0.11800
H1211       H  0.26574327  0.41301834  0.45376995     0.12900
C1212       C  0.33861306  0.52070586  0.35616351    -0.22600
H1213       H  0.39020584  0.52385538  0.41855438     0.08500
C1214       C  0.42419537  0.47651688  0.46205483     0.04900
C1215       C  0.45599175  0.48077959  0.48773658    -0.19800
C1216       C  0.45846847  0.48233647  0.54053522    -0.12100
C1217       C  0.42855459  0.48469565  0.56582903     0.13600
C1218       C  0.39888308  0.48403186  0.53916638    -0.22500
C1219       C  0.42148082  0.46954445  0.40711013    -0.05600
H1220       H  0.47904393  0.48346812  0.46538664     0.15100
C1221       C  0.42655494  0.48891711  0.62125179    -0.15800
H1222       H  0.37748763  0.48682737  0.55922101     0.09400
H1223       H  0.36036678  0.52187522  0.33023156     0.07300
H1224       H  0.34893164  0.54878505  0.37200748     0.08500
H1225       H  0.31330902  0.51319101  0.33396376     0.07500
H1226       H  0.32634388  0.42488403  0.54805143     0.02400
H1227       H  0.33795517  0.40194505  0.49961044     0.02900
H1228       H  0.28997302  0.38942669  0.51113064     0.06400
H1229       H  0.44522967  0.46662414  0.39294515     0.05400
H1230       H  0.42189231  0.49325754  0.38791740    -0.00400
H1231       H  0.39494834  0.44345708  0.39862331     0.01100
H1232       H  0.43459520  0.51797190  0.63032966     0.04700
H1233       H  0.44434498  0.48067183  0.64124308     0.06700
H1234       H  0.39733104  0.47023874  0.63492441     0.07600
C1235       C  0.06236016  0.45853177  0.63801777    -0.22100
C1236       C  0.09186800  0.46916452  0.60325930     0.09900
C1237       C  0.08675875  0.48024913  0.55534847     0.10300
C1238       C  0.05209280  0.47685244  0.54297674    -0.17000
C1239       C  0.02373091  0.47069710  0.57889413    -0.27400
C1240       C  0.03064288  0.46249049  0.62868819     0.18600
C1241       C  0.12584726  0.46556505  0.61626935     0.12600
C1242       C  0.11790883  0.49869501  0.51685046    -0.11800
H1243       H  0.04884517  0.48317313  0.50472838     0.12900
C1244       C  0.00740471  0.45917253  0.67415928    -0.22600
H1245       H  0.06493375  0.44838407  0.67414556     0.08500
C1246       C  0.14446842  0.47545791  0.66332906     0.04900
C1247       C  0.17247866  0.46625973  0.67420338    -0.19800
C1248       C  0.18563804  0.45114975  0.63777829    -0.12100
C1249       C  0.17091865  0.44679238  0.58882856     0.13600
C1250       C  0.13938640  0.45042521  0.58043832    -0.22500
C1251       C  0.13656701  0.49652414  0.70267480    -0.05600
H1252       H  0.19087940  0.49722811  0.37587046     0.15100
C1253       C  0.18827977  0.43911628  0.54383983    -0.15800
H1254       H  0.12595005  0.44216812  0.54445754     0.09400
H1255       H  0.01988076  0.45557456  0.70859000     0.07300
H1256       H  0.97980436  0.43391549  0.67356631     0.08500
H1257       H  0.00552307  0.48454350  0.67898706     0.07500
H1258       H  0.11173726  0.48010878  0.48428207     0.02400
H1259       H  0.14596809  0.50679506  0.53178360     0.02900
H1260       H  0.11971614  0.52482491  0.50384493     0.06400
H1261       H  0.17501669  0.55066130  0.35964055     0.05400
H1262       H  0.12277391  0.47828721  0.73564143    -0.00400
H1263       H  0.11887871  0.50761637  0.68902593     0.01100
H1264       H  0.16842808  0.41122256  0.52863079     0.04700
H1265       H  0.21539945  0.44085458  0.55225255     0.06700
H1266       H  0.19436732  0.46032962  0.51447919     0.07600
C1267       C  0.86346483  0.09047678  0.25540455    -0.22100
C1268       C  0.88570249  0.12447773  0.27908905     0.12300
C1269       C  0.95956290  0.14352093  0.64585736     0.10300
C1270       C  0.97300379  0.11994866  0.63164459    -0.17000
C1271       C  0.91793494  0.08304316  0.24323340    -0.27400
C1272       C  0.87901518  0.06978409  0.23684084     0.18600
C1273       C  0.86707298  0.14437769  0.29839339     0.12600
C1274       C  0.98317460  0.18472321  0.63626221    -0.11800
H1275       H  0.00030289  0.13193246  0.61345426     0.12900
C1276       C  0.85397812  0.03522514  0.20774171    -0.22600
H1277       H  0.83368199  0.08025771  0.25107260     0.08500
C1278       C  0.88177388  0.15210882  0.64294654     0.04900
C1279       C  0.86025956  0.16807708  0.65648792    -0.19800
C1280       C  0.82498822  0.17497407  0.33674901    -0.12100
C1281       C  0.83881763  0.15816594  0.36946543     0.13600
C1282       C  0.85961134  0.14291024  0.34975514    -0.22500
C1283       C  0.87832003  0.13662936  0.59115760    -0.05600
H1284       H  0.84207718  0.17001168  0.62915817     0.15100
C1285       C  0.83151843  0.15516111  0.42502306    -0.15800
H1286       H  0.86942572  0.12907379  0.37448676     0.09400
H1287       H  0.86674688  0.03783828  0.17024357     0.07300
H1288       H  0.82548342  0.03125239  0.20245089     0.08500
H1289       H  0.85036077  0.01020986  0.22750049     0.07500
H1290       H  0.98882110  0.19985286  0.67213569     0.02400
H1291       H  0.96812294  0.19390764  0.61116669     0.02900
H1292       H  0.01058702  0.19229745  0.61841116     0.06400
H1293       H  0.85837135  0.14061740  0.56807712     0.05400
H1294       H  0.86792878  0.10636290  0.59339418    -0.00400
H1295       H  0.90614855  0.15080242  0.57201146     0.01100
H1296       H  0.81624006  0.12542639  0.43641360     0.04700
H1297       H  0.81445751  0.16748758  0.43723427     0.06700
H1298       H  0.85872188  0.16966731  0.44490501     0.07600
C1299       C  0.90021156  0.41373770  0.48660048    -0.22100
C1300       C  0.90476092  0.38340694  0.47649368     0.09900
C1301       C  0.94007428  0.38699500  0.48521267     0.10300
C1302       C  0.96896189  0.41953241  0.50732491    -0.17000
C1303       C  0.96434357  0.44986564  0.52189697    -0.27400
C1304       C  0.92912236  0.44679926  0.50778675     0.18600
C1305       C  0.87286418  0.34860416  0.45488419     0.12600
C1306       C  0.94688234  0.35560052  0.47287985    -0.11800
H1307       H  0.99427109  0.41925996  0.51580761     0.12900
C1308       C  0.91937810  0.47671623  0.51630058    -0.22600
H1309       H  0.87344366  0.41148971  0.47817566     0.08500
C1310       C  0.84343418  0.32067637  0.48451187     0.04900
C1311       C  0.81656205  0.28670950  0.46246437    -0.19800
C1312       C  0.81820543  0.28013587  0.41125000    -0.12100
C1313       C  0.84610456  0.30942443  0.38141578     0.13600
C1314       C  0.87306128  0.34278484  0.40356146    -0.22500
C1315       C  0.84135938  0.32609903  0.53968245    -0.05600
H1316       H  0.79558785  0.26448572  0.48577141     0.15100
C1317       C  0.89385622  0.30913192  0.66691264    -0.15800
H1318       H  0.89500210  0.36425817  0.38061688     0.09400
H1319       H  0.89793796  0.46759814  0.54629655     0.07300
H1320       H  0.90737565  0.48121634  0.48182051     0.08500
H1321       H  0.94397061  0.50386696  0.52579337     0.07500
H1322       H  0.94339715  0.34992562  0.43222183     0.02400
H1323       H  0.92649839  0.33016485  0.49378109     0.02900
H1324       H  0.97569969  0.36221892  0.48286064     0.06400
H1325       H  0.81683249  0.30173554  0.55751939     0.05400
H1326       H  0.83865364  0.35092712  0.54630200    -0.00400
H1327       H  0.86725224  0.33005304  0.55766432     0.01100
H1328       H  0.89736431  0.33119878  0.64065415     0.04700
H1329       H  0.87014617  0.28269411  0.65293829     0.06700
H1330       H  0.91979457  0.30729515  0.66592413     0.07600
C1331       C  0.67476914  0.11215529  0.71473452    -0.22100
C1332       C  0.66525713  0.10935846  0.66402732     0.09900
C1333       C  0.69094497  0.13718326  0.63070016     0.10300
C1334       C  0.72560369  0.16641762  0.64836350    -0.17000
C1335       C  0.73573328  0.16877796  0.69885875    -0.27400
C1336       C  0.70963223  0.14108464  0.73235406     0.18600
C1337       C  0.62817809  0.07768943  0.64636920     0.12600
C1338       C  0.68222130  0.13518380  0.57597423    -0.11800
H1339       H  0.74583270  0.18649848  0.62204228     0.12900
C1340       C  0.69200624  0.11943105  0.43828797    -0.22600
H1341       H  0.65517596  0.09112097  0.74067391     0.08500
C1342       C  0.62298626  0.04270389  0.63291761     0.04900
C1343       C  0.58821123  0.01517438  0.61288735    -0.19800
C1344       C  0.55829747  0.02190397  0.60281213    -0.12100
C1345       C  0.56148807  0.05365940  0.62876994     0.13600
C1346       C  0.59686343  0.08214090  0.64542602    -0.22500
C1347       C  0.65450859  0.03471725  0.63851346    -0.05600
H1348       H  0.58543384  0.98876004  0.60328594     0.15100
C1349       C  0.52889035  0.05617636  0.64986561    -0.15800
H1350       H  0.59939469  0.10723384  0.66126900     0.09400
H1351       H  0.69578859  0.09499228  0.43473835     0.07300
H1352       H  0.67119178  0.11387102  0.46852201     0.08500
H1353       H  0.71917168  0.14378653  0.44936930     0.07500
H1354       H  0.65608354  0.13621401  0.57074176     0.02400
H1355       H  0.67822068  0.10875677  0.56045619     0.02900
H1356       H  0.70526236  0.15859020  0.55459546     0.06400
H1357       H  0.64622778  0.00623024  0.62595338     0.05400
H1358       H  0.66268305  0.03726901  0.67832056    -0.00400
H1359       H  0.67916583  0.05484868  0.61579400     0.01100
H1360       H  0.53422782  0.06436327  0.68964551     0.04700
H1361       H  0.50234072  0.02928411  0.65032065     0.06700
H1362       H  0.52627115  0.07830278  0.63056130     0.07600
C1363       C  0.83320816  0.25232550  0.73512144     0.03500
C1364       C  0.75910911  0.20747280  0.07024262    -0.12600
C1365       C  0.73877446  0.16859221  0.06147761     0.01000
C1366       C  0.75666953  0.14798067  0.06840851    -0.11100
C1367       C  0.83761000  0.19745347  0.71620733     0.03500
C1368       C  0.85423646  0.23454616  0.73046296    -0.10600
H1369       H  0.74581819  0.22384310  0.06423219     0.09100
H1370       H  0.74173337  0.11852217  0.05999962     0.06600
H1371       H  0.88434485  0.25019279  0.73643489     0.06500
C1372       C  0.23418397  0.44614155  0.02935399     0.03500
C1373       C  0.21492051  0.40719255  0.03222194    -0.12600
C1374       C  0.22067516  0.38298769  0.63729581     0.01000
C1375       C  0.25288423  0.40024120  0.66655706    -0.11100
C1376       C  0.26301305  0.43356817  0.69161645     0.03500
C1377       C  0.24144514  0.45120139  0.68342955    -0.10600
H1378       H  0.18639817  0.39113909  0.01861324     0.09100
H1379       H  0.26971324  0.38716030  0.67079010     0.06600
H1380       H  0.24953714  0.47746126  0.70119372     0.06500
C1381       C  0.47599485  0.19217316  0.71772790     0.03500
C1382       C  0.44319725  0.17050509  0.69024724    -0.12600
C1383       C  0.41809138  0.20084382  0.06718870     0.01000
C1384       C  0.43694620  0.23892936  0.05752947    -0.11100
C1385       C  0.47614960  0.26073399  0.06170658     0.03500
C1386       C  0.49681527  0.24304223  0.07514407    -0.10600
H1387       H  0.43012599  0.14046629  0.69029373     0.09100
H1388       H  0.42091764  0.25162084  0.04556106     0.06600
H1389       H  0.52716614  0.25910004  0.07730213     0.06500
C1390       C  0.24173375  0.78168626  0.01741357     0.03500
C1391       C  0.22455233  0.79273089  0.98213297    -0.12600
C1392       C  0.20950905  0.77467916  0.64025513     0.01000
C1393       C  0.19216305  0.74389653  0.67269789    -0.11100
C1394       C  0.21258870  0.73905413  0.71090716     0.03500
C1395       C  0.25180992  0.76403974  0.71387497    -0.10600
H1396       H  0.24144649  0.81864286  0.96184246     0.09100
H1397       H  0.16256513  0.72377731  0.66885501     0.06600
H1398       H  0.26799589  0.76043870  0.74265139     0.06500
C1399       C  0.81844076  0.52798499  0.02004959     0.03500
C1400       C  0.82806338  0.55512683  0.98298411    -0.12600
C1401       C  0.80252453  0.57678519  0.73197603     0.01000
C1402       C  0.76445317  0.56114413  0.74468169    -0.11100
C1403       C  0.74139984  0.52265230  0.75264573     0.03500
C1404       C  0.75762886  0.49964651  0.74836159    -0.10600
H1405       H  0.85310115  0.56388996  0.96022367     0.09100
H1406       H  0.75246743  0.57899031  0.74754976     0.06600
H1407       H  0.74038627  0.46991271  0.75406395     0.06500
C1408       C  0.55882625  0.79967556  0.73886269     0.03500
C1409       C  0.59818605  0.81786103  0.73974543    -0.12600
C1410       C  0.61403078  0.81934654  0.98654770     0.01000
C1411       C  0.59787505  0.78096456  0.98216076    -0.11100
C1412       C  0.55999317  0.75650794  0.99489664     0.03500
C1413       C  0.54002653  0.77163171  0.02001435    -0.10600
H1414       H  0.61423498  0.84664450  0.75129773     0.09100
H1415       H  0.61449960  0.77028814  0.96532616     0.06600
H1416       H  0.51115942  0.75352744  0.03189996     0.06500
O1417       O  0.08069766  0.96603898  0.55148009    -0.87900
C1418       C  0.06899050  0.05343449  0.85779060     0.88100
Mg1419     Mg  0.04045628  0.90840680  0.56384050     1.58100
O1420       O  0.05497105  0.04636040  0.57296867    -0.87700
O1421       O  0.11117420  0.01800363  0.59265881    -0.75000
C1422       C  0.86091197  0.91069836  0.84735263     0.93100
O1423       O  0.05159718  0.97563412  0.80058482    -0.74800
O1424       O  0.87657599  0.89385130  0.82841073    -0.82300
Mg1425     Mg  0.09309377  0.99753989  0.86625939     1.58000
C1426       C  0.96515599  0.05742194  0.61738825     0.93100
O1427       O  0.15981107  0.02358946  0.49733533    -0.80600
H1428       H  0.07709074  0.06248017  0.64076550    -0.05900
C1429       C  0.95738139  0.99955560  0.83966834     0.88000
O1430       O  0.01713997  0.92261317  0.63296282    -0.75100
O1431       O  0.07213608  0.03334063  0.88918705    -0.87900
O1432       O  0.99240090  0.07172335  0.58608778    -0.80700
C1433       C  0.07191323  0.12036346  0.96518022     0.93200
C1434       C  0.18061025  0.05818127  0.50618862     0.93000
Mg1435     Mg  0.96368990  0.97956088  0.61408631     1.58000
O1436       O  0.87679146  0.93592205  0.87984621    -0.80600
O1437       O  0.02277869  0.02056834  0.64115122    -0.74800
O1438       O  0.08757395  0.10081876  0.96352090    -0.80700
O1439       O  0.11379966  0.95874470  0.84487262    -0.82400
O1440       O  0.94636013  0.85155294  0.58869643    -0.80700
C1441       C  0.05263093  0.04441891  0.61896508     0.87500
O1442       O  0.97822959  0.93825312  0.60237425    -0.87800
O1443       O  0.95981541  0.99974756  0.88576204    -0.88000
O1444       O  0.95187475  0.97179611  0.81352695    -0.75000
Mg1445     Mg  0.10892411  0.06197021  0.54325790     1.58000
O1446       O  0.03740390  0.10681338  0.95500062    -0.82400
H1447       H  0.10541318  0.96915862  0.61662260    -0.06100
O1448       O  0.99795936  0.93053916  0.83013142    -0.87700
H1449       H  0.00546314  0.94537857  0.75814843    -0.05900
H1450       H  0.98422548  0.93516960  0.67572681    -0.06100
C1451       C  0.01764850  0.94992161  0.79476298     0.87400
C1452       C  0.09950077  0.98359657  0.58779508     0.88000
C1453       C  0.99236242  0.93179620  0.63856403     0.88100
H1454       H  0.96122816  0.02422588  0.82089419    -0.06100
O1455       O  0.04351189  0.06210451  0.86126723    -0.75100
Mg1456     Mg  0.93903504  0.91220960  0.82974268     1.58000
H1457       H  0.08796645  0.06332335  0.82599024    -0.06100
C1458       C  0.09682505  0.92500691  0.83122058     0.93100
O1459       O  0.99809819  0.84787001  0.58060369    -0.82300
C1460       C  0.96414459  0.83432202  0.59499780     0.93100
O1461       O  0.16662854  0.07855927  0.51518528    -0.82300
Mg1462     Mg  0.99703180  0.05184524  0.91897858     1.58200
O1463       O  0.06107506  0.90643578  0.82773577    -0.80700
O1464       O  0.94891797  0.02323497  0.62873890    -0.82400
C1465       C  0.03072862  0.49624921  0.89314559    -0.02100
C1466       C  0.49298455  0.98522095  0.89739385    -0.02100
C1467       C  0.49599441  0.48966193  0.89848242    -0.02100
C1468       C  0.68587003  0.86834789  0.88474519    -0.22100
C1469       C  0.71771717  0.87141817  0.90743186     0.09900
C1470       C  0.71732899  0.82123351  0.71922398     0.10300
C1471       C  0.68050585  0.80849808  0.73623350    -0.17000
C1472       C  0.65051614  0.84355989  0.96196403    -0.27400
C1473       C  0.65226939  0.85510772  0.91191329     0.18600
C1474       C  0.75042001  0.87906895  0.87603913     0.12600
C1475       C  0.73953478  0.80508626  0.74105675    -0.11800
H1476       H  0.66846136  0.78743239  0.76533194     0.12900
C1477       C  0.61838911  0.85224762  0.88688163    -0.22600
H1478       H  0.68691735  0.87487774  0.84535449     0.08500
C1479       C  0.77505843  0.84838550  0.61139356     0.04900
C1480       C  0.81160995  0.86281027  0.59184049    -0.19800
C1481       C  0.82137035  0.89849882  0.83797204    -0.12100
C1482       C  0.80954840  0.92497111  0.83782307     0.13600
C1483       C  0.77431209  0.91517057  0.85813251    -0.22500
C1484       C  0.74193129  0.82007390  0.58199918    -0.05600
H1485       H  0.81575294  0.85414043  0.55537396     0.15100
C1486       C  0.83448789  0.96407579  0.81874357    -0.15800
H1487       H  0.76640811  0.93617047  0.86255524     0.09400
H1488       H  0.59515016  0.82307353  0.88764979     0.07300
H1489       H  0.62437381  0.86177047  0.84737132     0.08500
H1490       H  0.60928000  0.86965984  0.90701846     0.07500
H1491       H  0.76578672  0.82744321  0.75761068     0.02400
H1492       H  0.74682901  0.79125440  0.71125983     0.02900
H1493       H  0.72339566  0.78415463  0.77061626     0.06400
H1494       H  0.75093566  0.81291892  0.54657980     0.05400
H1495       H  0.72328470  0.83113634  0.57249390    -0.00400
H1496       H  0.72580274  0.79420363  0.60446050     0.01100
H1497       H  0.82005144  0.96973039  0.78813514     0.04700
H1498       H  0.86166613  0.96862165  0.80368544     0.06700
H1499       H  0.84033051  0.98421232  0.84909849     0.07600
C1500       C  0.52281546  0.84782100  0.82354259    -0.22100
C1501       C  0.52880483  0.87832413  0.79383829     0.09900
C1502       C  0.54064325  0.88004992  0.74355992     0.10300
C1503       C  0.54740852  0.85223022  0.72520943    -0.17000
C1504       C  0.54153412  0.82194377  0.75509424    -0.27400
C1505       C  0.52814289  0.81934407  0.80442298     0.18600
C1506       C  0.51994872  0.90621048  0.81600541     0.12600
C1507       C  0.54568602  0.91067312  0.70875163    -0.11800
H1508       H  0.53894957  0.85817970  0.98865107     0.12900
C1509       C  0.51998521  0.78665121  0.83701910    -0.22600
H1510       H  0.51330744  0.84602446  0.86185464     0.08500
C1511       C  0.48394958  0.89503025  0.83501195     0.04900
C1512       C  0.47778918  0.91986457  0.86287803    -0.19800
C1513       C  0.50460116  0.95860724  0.86799709    -0.12100
C1514       C  0.54139574  0.96978517  0.84691959     0.13600
C1515       C  0.54831757  0.94332203  0.82311066    -0.22500
C1516       C  0.45049406  0.85668592  0.82640761    -0.05600
H1517       H  0.45070129  0.90687272  0.88005441     0.15100
C1518       C  0.57519941  0.00869488  0.84870384    -0.15800
H1519       H  0.57649276  0.95189365  0.80997036     0.09400
H1520       H  0.51159876  0.78957504  0.87551474     0.07300
H1521       H  0.54522847  0.78388070  0.83908124     0.08500
H1522       H  0.49680227  0.76085663  0.82064032     0.07500
H1523       H  0.56723448  0.93815919  0.72311194     0.02400
H1524       H  0.51860118  0.90983303  0.70487487     0.02900
H1525       H  0.52672826  0.90661956  0.98244841     0.06400
H1526       H  0.42738848  0.85935363  0.80975546     0.05400
H1527       H  0.44052425  0.84159411  0.86256606    -0.00400
H1528       H  0.45649428  0.83971344  0.80028579     0.01100
H1529       H  0.59694755  0.00875581  0.87289031     0.04700
H1530       H  0.56881235  0.02987268  0.86230877     0.06700
H1531       H  0.58797740  0.01756096  0.81092549     0.07600
C1532       C  0.52339521  0.58112850  0.97960402    -0.22100
C1533       C  0.51601287  0.60198995  0.94505179     0.09900
C1534       C  0.50555635  0.58724507  0.89642339     0.10300
C1535       C  0.50541567  0.55453034  0.88347244    -0.17000
C1536       C  0.50819494  0.53051800  0.91891671    -0.27400
C1537       C  0.51825036  0.54545809  0.96863596     0.18600
C1538       C  0.52351729  0.64061296  0.95848602     0.12600
C1539       C  0.49188717  0.60367082  0.85735799    -0.11800
H1540       H  0.49950573  0.54580951  0.84488552     0.12900
C1541       C  0.52474201  0.52615967  0.01149697    -0.22600
H1542       H  0.53325778  0.59298792  0.01618301     0.08500
C1543       C  0.51068640  0.64943344  0.00324543     0.04900
C1544       C  0.52192902  0.68701102  0.01411896    -0.19800
C1545       C  0.54323956  0.71608498  0.97992011    -0.12100
C1546       C  0.55229062  0.70620003  0.93304325     0.13600
C1547       C  0.54511931  0.66993576  0.92503379    -0.22500
C1548       C  0.48443415  0.62014131  0.03996264    -0.05600
H1549       H  0.51399187  0.69354777  0.04969292     0.15100
C1550       C  0.56822594  0.73262168  0.88919000    -0.15800
H1551       H  0.55547614  0.66427566  0.89078102     0.09400
H1552       H  0.52712674  0.54021271  0.04763267     0.07300
H1553       H  0.55167438  0.52679765  0.00615294     0.08500
H1554       H  0.50087544  0.49772682  0.01615959     0.07500
H1555       H  0.51216148  0.61463013  0.82554363     0.02400
H1556       H  0.48741340  0.62597526  0.87197980     0.02900
H1557       H  0.46421486  0.58166523  0.84331551     0.06400
H1558       H  0.45957410  0.62328137  0.04672678     0.05400
H1559       H  0.49906244  0.62362159  0.07588332    -0.00400
H1560       H  0.47356214  0.59145697  0.02640325     0.01100
H1561       H  0.59711928  0.73857234  0.88028995     0.04700
H1562       H  0.56871567  0.75894256  0.89591722     0.06700
H1563       H  0.55025873  0.71982822  0.85605313     0.07600
C1564       C  0.90411239  0.72724550  0.84771817    -0.22100
C1565       C  0.89784670  0.72735680  0.66415474     0.09900
C1566       C  0.89543565  0.75802514  0.68098774     0.10300
C1567       C  0.91849982  0.79283715  0.65873981    -0.17000
C1568       C  0.94393289  0.79764741  0.62007052    -0.27400
C1569       C  0.92654061  0.76504350  0.83499505     0.18600
C1570       C  0.87208828  0.68961961  0.68353017     0.12600
C1571       C  0.86796575  0.75375955  0.72161093    -0.11800
H1572       H  0.91622042  0.81638385  0.67107795     0.12900
C1573       C  0.96358738  0.77778457  0.80856441    -0.22600
H1574       H  0.91473687  0.70860259  0.84108371     0.08500
C1575       C  0.81854841  0.64493080  0.88030405     0.04900
C1576       C  0.80442619  0.61101753  0.90638515    -0.19800
C1577       C  0.82585123  0.61655070  0.71867683    -0.12100
C1578       C  0.86024662  0.64039826  0.74277388     0.13600
C1579       C  0.88280094  0.67691745  0.72507615    -0.22500
C1580       C  0.79735052  0.64604098  0.83552869    -0.05600
H1581       H  0.77866480  0.58683618  0.89417165     0.15100
C1582       C  0.87327476  0.62760962  0.78702159    -0.15800
H1583       H  0.90934058  0.69541347  0.74284599     0.09400
H1584       H  0.96715159  0.75396267  0.79813322     0.07300
H1585       H  0.98734827  0.79603076  0.83310508     0.08500
H1586       H  0.96495793  0.79288332  0.77370383     0.07500
H1587       H  0.87350925  0.74242826  0.75584195     0.02400
H1588       H  0.83879061  0.73433237  0.70945951     0.02900
H1589       H  0.87020183  0.78073249  0.73104186     0.06400
H1590       H  0.79446999  0.62477674  0.80848721     0.05400
H1591       H  0.81165032  0.67335534  0.81609653    -0.00400
H1592       H  0.76878404  0.63964499  0.84726177     0.01100
H1593       H  0.88001833  0.60610476  0.77571238     0.04700
H1594       H  0.85109064  0.61595671  0.81637381     0.06700
H1595       H  0.89911587  0.65075270  0.80348665     0.07600
C1596       C  0.64284383  0.50983024  0.75021178    -0.22100
C1597       C  0.63054005  0.49874412  0.79953602     0.09900
C1598       C  0.65270039  0.49056563  0.83132822     0.10300
C1599       C  0.68741108  0.49540993  0.81382898    -0.17000
C1600       C  0.70070345  0.50832766  0.76511603    -0.27400
C1601       C  0.67728128  0.51445142  0.73253242     0.18600
C1602       C  0.59563834  0.49801273  0.81800562     0.12600
C1603       C  0.64033152  0.47816464  0.88441995    -0.11800
H1604       H  0.70523108  0.49113741  0.83920148     0.12900
C1605       C  0.68806499  0.52653167  0.67892594    -0.22600
H1606       H  0.62588438  0.51591506  0.72559945     0.08500
C1607       C  0.59629295  0.52991197  0.83661560     0.04900
C1608       C  0.56329410  0.52725774  0.85679573    -0.19800
C1609       C  0.52835040  0.49306309  0.86105366    -0.12100
C1610       C  0.52827588  0.46127451  0.83939093     0.13600
C1611       C  0.56141610  0.46452548  0.81844266    -0.22500
C1612       C  0.63198151  0.56728629  0.83800697    -0.05600
H1613       H  0.56683804  0.55264359  0.87231720     0.15100
C1614       C  0.49486466  0.42238263  0.83895590    -0.15800
H1615       H  0.56081813  0.44001282  0.80371491     0.09400
H1616       H  0.66552346  0.50645993  0.65406299     0.07300
H1617       H  0.71453331  0.52771529  0.66736433     0.08500
H1618       H  0.69143373  0.55445448  0.67332705     0.07500
H1619       H  0.61278868  0.45184927  0.88482207     0.02400
H1620       H  0.63744678  0.49980124  0.90473911     0.02900
H1621       H  0.66085720  0.47326458  0.90460627     0.06400
H1622       H  0.63840690  0.57671247  0.87730562     0.05400
H1623       H  0.62810108  0.58782766  0.81643578    -0.00400
H1624       H  0.65670390  0.56692838  0.82212767     0.01100
H1625       H  0.48911565  0.41266604  0.79982223     0.04700
H1626       H  0.46897992  0.42002361  0.85397374     0.06700
H1627       H  0.50110516  0.40353951  0.86085287     0.07600
C1628       C  0.94152334  0.46822889  0.97894756    -0.22100
C1629       C  0.93951420  0.50075984  0.97936820     0.09900
C1630       C  0.96999060  0.53325584  0.95859672     0.10300
C1631       C  0.00044139  0.53206325  0.93595644    -0.17000
C1632       C  0.00230637  0.49891225  0.93190939    -0.27400
C1633       C  0.97199340  0.46671686  0.95655614     0.18600
C1634       C  0.90425191  0.49990856  0.99758480     0.12600
C1635       C  0.96929912  0.56908432  0.95703117    -0.11800
H1636       H  0.02081224  0.55724846  0.91741779     0.12900
C1637       C  0.96933226  0.42931469  0.95916716    -0.22600
H1638       H  0.91853603  0.44327583  0.99573808     0.08500
C1639       C  0.87074498  0.48268943  0.96947010     0.04900
C1640       C  0.84069157  0.48822086  0.98242365    -0.19800
C1641       C  0.84292830  0.51095349  0.02253014    -0.12100
C1642       C  0.87513270  0.52562204  0.05322531     0.13600
C1643       C  0.90513693  0.51971087  0.04063399    -0.22500
C1644       C  0.86749815  0.46073928  0.92332748    -0.05600
H1645       H  0.81647973  0.47740223  0.95827055     0.15100
C1646       C  0.85514034  0.51906203  0.80508413    -0.15800
H1647       H  0.93025726  0.53233198  0.06318708     0.09400
H1648       H  0.94603766  0.40923177  0.93530561     0.07300
H1649       H  0.96329826  0.41873725  0.99824252     0.08500
H1650       H  0.99567712  0.43038556  0.94806593     0.07500
H1651       H  0.96879501  0.57856976  0.99554634     0.02400
H1652       H  0.94396873  0.56474203  0.93690336     0.02900
H1653       H  0.99441315  0.59170359  0.93759796     0.06400
H1654       H  0.83962967  0.44950464  0.90551508     0.05400
H1655       H  0.87119382  0.43689309  0.93281442    -0.00400
H1656       H  0.88919193  0.47901617  0.89576513     0.01100
H1657       H  0.85851590  0.50080697  0.83210530     0.04700
H1658       H  0.83160552  0.52255478  0.81860598     0.06700
H1659       H  0.88126116  0.54671475  0.80445541     0.07600
C1660       C  0.16623172  0.89312140  0.85724359    -0.22100
C1661       C  0.14342643  0.85526399  0.84719565     0.09900
C1662       C  0.10778512  0.82010270  0.49181517     0.10300
C1663       C  0.09404203  0.84350257  0.47847112    -0.17000
C1664       C  0.11799949  0.90492645  0.82553715    -0.27400
C1665       C  0.15408253  0.91832249  0.84695819     0.18600
C1666       C  0.15074478  0.82903852  0.87501224     0.12600
C1667       C  0.08133704  0.77872637  0.49167668    -0.11800
H1668       H  0.06444822  0.83136066  0.47010278     0.12900
C1669       C  0.17893748  0.95810354  0.86311536    -0.22600
H1670       H  0.19207349  0.90233314  0.87756380     0.08500
C1671       C  0.17770728  0.82000030  0.85909079     0.04900
C1672       C  0.18634037  0.79843802  0.89044564    -0.19800
C1673       C  0.16963183  0.78698952  0.93814232    -0.12100
C1674       C  0.15744239  0.78783970  0.61804050     0.13600
C1675       C  0.14297340  0.80273424  0.58384827    -0.22500
C1676       C  0.19817506  0.83423621  0.80999418    -0.05600
H1677       H  0.20759895  0.79194714  0.87871439     0.15100
C1678       C  0.14186219  0.78029143  0.67059666    -0.15800
H1679       H  0.12053211  0.80749563  0.59563511     0.09400
H1680       H  0.20670843  0.96341402  0.87622029     0.07300
H1681       H  0.16565136  0.96459337  0.89470601     0.08500
H1682       H  0.18419836  0.97720249  0.83119834     0.07500
H1683       H  0.07910288  0.76651047  0.52920728     0.02400
H1684       H  0.09189151  0.76625761  0.46441622     0.02900
H1685       H  0.05256019  0.77136069  0.48025305     0.06400
H1686       H  0.21836723  0.82448004  0.80298171     0.05400
H1687       H  0.21414171  0.86509284  0.80989224    -0.00400
H1688       H  0.17759702  0.82440844  0.77921384     0.01100
H1689       H  0.12090164  0.78923929  0.67636251     0.04700
H1690       H  0.16495956  0.79584700  0.69731052     0.06700
H1691       H  0.12732952  0.75012614  0.67885806     0.07600
C1692       C  0.13807919  0.67196962  0.80360405    -0.22100
C1693       C  0.14389428  0.64168657  0.80218389     0.09900
C1694       C  0.17515255  0.64516725  0.77494256     0.10300
C1695       C  0.19877445  0.67824051  0.74808402    -0.17000
C1696       C  0.19179320  0.70790158  0.74750021    -0.27400
C1697       C  0.16170498  0.70500768  0.77720033     0.18600
C1698       C  0.11495863  0.60565113  0.82541144     0.12600
C1699       C  0.18332942  0.61381009  0.77372528    -0.11800
H1700       H  0.22173577  0.68027960  0.72557070     0.12900
C1701       C  0.15351517  0.73616785  0.78190007    -0.22600
H1702       H  0.11427156  0.66950284  0.82454954     0.08500
C1703       C  0.11032653  0.59984396  0.87729595     0.04900
C1704       C  0.08232936  0.56508369  0.89618183    -0.19800
C1705       C  0.05740977  0.53487378  0.86529361    -0.12100
C1706       C  0.06435695  0.54115917  0.81226291     0.13600
C1707       C  0.09161576  0.57656049  0.79400379    -0.22500
C1708       C  0.13559200  0.62995528  0.91295525    -0.05600
H1709       H  0.08008742  0.56125228  0.93620934     0.15100
C1710       C  0.04675412  0.51174734  0.77277899    -0.15800
H1711       H  0.09571881  0.58154308  0.75406775     0.09400
H1712       H  0.15271634  0.74239023  0.82194481     0.07300
H1713       H  0.12566461  0.72762983  0.76563318     0.08500
H1714       H  0.17513589  0.76205061  0.76337577     0.07500
H1715       H  0.15987953  0.58897386  0.75596092     0.02400
H1716       H  0.18695875  0.60658542  0.81238007     0.02900
H1717       H  0.20941897  0.62150040  0.75213627     0.06400
H1718       H  0.12894536  0.62054532  0.95246957     0.05400
H1719       H  0.13221462  0.65455606  0.90842518    -0.00400
H1720       H  0.16534908  0.63823140  0.90533606     0.01100
H1721       H  0.01745083  0.50426702  0.76631272     0.04700
H1722       H  0.04900737  0.48713602  0.78177388     0.06700
H1723       H  0.06120083  0.52172811  0.73601358     0.07600
C1724       C  0.38622291  0.91294072  0.92758589    -0.22100
C1725       C  0.38824842  0.90136020  0.97577944     0.09900
C1726       C  0.42298074  0.91846278  0.00006404     0.10300
C1727       C  0.45505607  0.94735628  0.97587920    -0.17000
C1728       C  0.45440255  0.95888403  0.92589720    -0.27400
C1729       C  0.41843868  0.93951165  0.90131153     0.18600
C1730       C  0.35396147  0.86897236  0.99791990     0.12600
C1731       C  0.42635143  0.90452019  0.05059102    -0.11800
H1732       H  0.48117447  0.95890360  0.99579722     0.12900
C1733       C  0.41288007  0.94110767  0.84568566    -0.22600
H1734       H  0.35947279  0.89863692  0.90856840     0.08500
C1735       C  0.32901031  0.87373079  0.02918938     0.04900
C1736       C  0.29416923  0.84261831  0.04262286    -0.19800
C1737       C  0.28282242  0.80707440  0.02353355    -0.12100
C1738       C  0.30892792  0.80202506  0.99496650     0.13600
C1739       C  0.34430291  0.83296237  0.98298970    -0.22500
C1740       C  0.33771728  0.91194660  0.04488814    -0.05600
H1741       H  0.27389598  0.84672139  0.06346475     0.15100
C1742       C  0.29924337  0.76492879  0.97335797    -0.15800
H1743       H  0.36357197  0.82929594  0.95915166     0.09400
H1744       H  0.39547597  0.95401308  0.83873883     0.07300
H1745       H  0.39790173  0.91244366  0.83045510     0.08500
H1746       H  0.43918972  0.95585107  0.82374253     0.07500
H1747       H  0.41879066  0.87497278  0.04787368     0.02400
H1748       H  0.40720951  0.90662142  0.07788590     0.02900
H1749       H  0.45519778  0.92052231  0.06521524     0.06400
H1750       H  0.31475471  0.91081539  0.06823114     0.05400
H1751       H  0.34139642  0.92916492  0.01131906    -0.00400
H1752       H  0.36387719  0.92566067  0.06693703     0.01100
H1753       H  0.30024929  0.76675902  0.93195620     0.04700
H1754       H  0.27092522  0.74232025  0.98497751     0.06700
H1755       H  0.31999956  0.75724773  0.98603248     0.07600
C1756       C  0.32728689  0.12073341  0.62255225    -0.22100
C1757       C  0.33143198  0.12157298  0.57048795     0.09900
C1758       C  0.33087450  0.15378891  0.98986007     0.10300
C1759       C  0.36725209  0.17865585  0.00597909    -0.17000
C1760       C  0.39409446  0.16328781  0.63123970    -0.27400
C1761       C  0.35815204  0.14131550  0.65333154     0.18600
C1762       C  0.29676105  0.10424447  0.54077536     0.12600
C1763       C  0.31915506  0.15870798  0.93852016    -0.11800
H1764       H  0.38746704  0.19916913  0.98004786     0.12900
C1765       C  0.35100689  0.13994883  0.70884813    -0.22600
H1766       H  0.29941709  0.10494240  0.63921112     0.08500
C1767       C  0.25280080  0.07142723  0.97786006     0.04900
C1768       C  0.21533747  0.05376260  0.96204492    -0.19800
C1769       C  0.22186867  0.07447855  0.51020042    -0.12100
C1770       C  0.24761642  0.11325394  0.50557495     0.13600
C1771       C  0.28477138  0.12754039  0.52103044    -0.22500
C1772       C  0.27792640  0.05673690  0.96166266    -0.05600
H1773       H  0.20553608  0.03101573  0.93586696     0.15100
C1774       C  0.23644383  0.14000791  0.48522161    -0.15800
H1775       H  0.30388752  0.15737055  0.52106427     0.09400
H1776       H  0.33910467  0.11096391  0.72260532     0.07300
H1777       H  0.33045833  0.14913490  0.71660460     0.08500
H1778       H  0.37663917  0.15801764  0.73045096     0.07500
H1779       H  0.29513493  0.16359293  0.94178674     0.02400
H1780       H  0.31063130  0.13368880  0.91554803     0.02900
H1781       H  0.34236742  0.18282952  0.91838157     0.06400
H1782       H  0.26294625  0.03214774  0.93710274     0.05400
H1783       H  0.28753252  0.04822923  0.99509331    -0.00400
H1784       H  0.30290979  0.07825512  0.94099185     0.01100
H1785       H  0.26123749  0.16826440  0.47955513     0.04700
H1786       H  0.21718877  0.14282523  0.51165167     0.06700
H1787       H  0.22271424  0.13013890  0.44850007     0.07600
C1788       C  0.52016639  0.06911870  0.80703806    -0.22100
C1789       C  0.49470069  0.08069689  0.82043509     0.09900
C1790       C  0.46249671  0.05534924  0.84834263     0.10300
C1791       C  0.46134413  0.02414850  0.87094124    -0.17000
C1792       C  0.48897088  0.01387984  0.86141137    -0.27400
C1793       C  0.51317336  0.03333304  0.82007490     0.18600
C1794       C  0.49765871  0.11446267  0.79533344     0.12600
C1795       C  0.42797639  0.05913535  0.85119988    -0.11800
H1796       H  0.43833510  0.00822259  0.89649766     0.12900
C1797       C  0.51760634  0.01290348  0.77668003    -0.22600
H1798       H  0.54144322  0.08500343  0.77889531     0.08500
C1799       C  0.50006341  0.14508320  0.82174794     0.04900
C1800       C  0.49566884  0.17233328  0.79579418    -0.19800
C1801       C  0.49223344  0.17139540  0.74346827    -0.12100
C1802       C  0.49659357  0.14425282  0.71698631     0.13600
C1803       C  0.49755869  0.11553594  0.74304066    -0.22500
C1804       C  0.50917772  0.15005522  0.87653146    -0.05600
H1805       H  0.49385847  0.19368890  0.81650290     0.15100
C1806       C  0.47110221  0.14695566  0.00962025    -0.15800
H1807       H  0.49762082  0.09335458  0.72207847     0.09400
H1808       H  0.54743909  0.02545512  0.76502775     0.07300
H1809       H  0.50195789  0.01483094  0.74445661     0.08500
H1810       H  0.50438651  0.98290343  0.78318339     0.07500
H1811       H  0.41800588  0.05916358  0.81284274     0.02400
H1812       H  0.43369754  0.08503767  0.86989839     0.02900
H1813       H  0.40463323  0.03559788  0.87202121     0.06400
H1814       H  0.51002841  0.17531831  0.89140893     0.05400
H1815       H  0.53720228  0.15300033  0.88209677    -0.00400
H1816       H  0.48836729  0.12590803  0.89871642     0.01100
H1817       H  0.48882596  0.14174970  0.98336427     0.04700
H1818       H  0.47211222  0.17285010  0.99725179     0.06700
H1819       H  0.44164288  0.12353230  0.00757782     0.07600
C1820       C  0.46430271  0.39623378  0.97648242    -0.22100
C1821       C  0.49905782  0.40213561  0.99231093     0.09900
C1822       C  0.53096345  0.43716965  0.98321661     0.10300
C1823       C  0.52741968  0.46464912  0.95712748    -0.17000
C1824       C  0.49267597  0.45942603  0.93858238    -0.27400
C1825       C  0.45997292  0.42337053  0.95027242     0.18600
C1826       C  0.50075133  0.37027824  0.01637972     0.12600
C1827       C  0.56911917  0.44569031  0.00066249    -0.11800
H1828       H  0.55313130  0.49021334  0.94819549     0.12900
C1829       C  0.41980435  0.41010650  0.93532878    -0.22600
H1830       H  0.43999950  0.36906155  0.98399403     0.08500
C1831       C  0.48170061  0.35373859  0.06187863     0.04900
C1832       C  0.47906400  0.32051237  0.07874150    -0.19800
C1833       C  0.49281582  0.30141955  0.05038904    -0.12100
C1834       C  0.51233362  0.31811636  0.00515154     0.13600
C1835       C  0.51673452  0.35254599  0.98945794    -0.22500
C1836       C  0.46130792  0.36870477  0.09202934    -0.05600
H1837       H  0.45058524  0.28490299  0.74628018     0.15100
C1838       C  0.52627029  0.29920466  0.97040706    -0.15800
H1839       H  0.53029681  0.36417893  0.95379214     0.09400
H1840       H  0.40876555  0.42546356  0.95570521     0.07300
H1841       H  0.40029529  0.38063735  0.94598704     0.08500
H1842       H  0.41654201  0.41068331  0.89453598     0.07500
H1843       H  0.57742392  0.42719716  0.98188752     0.02400
H1844       H  0.56823615  0.44137260  0.04162913     0.02900
H1845       H  0.59111919  0.47488325  0.99226433     0.06400
H1846       H  0.45640412  0.34816003  0.77742089     0.05400
H1847       H  0.43055365  0.34905508  0.09005174    -0.00400
H1848       H  0.46722512  0.39632549  0.07884719     0.01100
H1849       H  0.51212954  0.29448833  0.93383114     0.04700
H1850       H  0.52084363  0.27199179  0.98462800     0.06700
H1851       H  0.55706417  0.31726375  0.96457186     0.07600
C1852       C  0.11474872  0.22486520  0.98107459    -0.22100
C1853       C  0.14299027  0.23219744  0.01555367     0.09900
C1854       C  0.14640677  0.20286099  0.03551378     0.10300
C1855       C  0.12238579  0.16671081  0.01858445    -0.17000
C1856       C  0.09477149  0.15918333  0.98256573    -0.27400
C1857       C  0.09029519  0.18860475  0.96448433     0.18600
C1858       C  0.16893000  0.27111616  0.02929715     0.12600
C1859       C  0.17522166  0.20968850  0.07465295    -0.11800
H1860       H  0.12512149  0.14410484  0.03377201     0.12900
C1861       C  0.06034677  0.17841481  0.49480824    -0.22600
H1862       H  0.11076384  0.24782727  0.52228081     0.08500
C1863       C  0.20313338  0.29286256  0.00309514     0.04900
C1864       C  0.22466530  0.33091570  0.01317703    -0.19800
C1865       C  0.21222665  0.34749930  0.04802653    -0.12100
C1866       C  0.19744126  0.31397071  0.63456177     0.13600
C1867       C  0.18371664  0.28159284  0.60609859    -0.22500
C1868       C  0.21585764  0.27635806  0.96275885    -0.05600
H1869       H  0.25026075  0.34820002  0.99188774     0.15100
C1870       C  0.19619761  0.30990908  0.69061152    -0.15800
H1871       H  0.17334929  0.25505423  0.62488980     0.09400
H1872       H  0.06440839  0.16917190  0.89289864     0.07300
H1873       H  0.05348509  0.20095304  0.49332536     0.08500
H1874       H  0.04319006  0.15937852  0.52560129     0.07500
H1875       H  0.17089664  0.22334440  0.10745440     0.02400
H1876       H  0.20398634  0.22805832  0.05954389     0.02900
H1877       H  0.17320207  0.18338475  0.08747188     0.06400
H1878       H  0.24299086  0.29751031  0.94551763     0.05400
H1879       H  0.19448637  0.26465781  0.93292063    -0.00400
H1880       H  0.21970825  0.25391626  0.97847614     0.01100
H1881       H  0.16690310  0.29012825  0.70300342     0.04700
H1882       H  0.20548756  0.33630897  0.71060071     0.06700
H1883       H  0.21447215  0.29878386  0.70193681     0.07600
C1884       C  0.36203550  0.48474391  0.74809595    -0.22100
C1885       C  0.35805889  0.46024412  0.78711659     0.09900
C1886       C  0.32187953  0.42949634  0.79721718     0.10300
C1887       C  0.29112543  0.42356395  0.76777440    -0.17000
C1888       C  0.29517542  0.44715954  0.72749414    -0.27400
C1889       C  0.33135560  0.47837877  0.71784662     0.18600
C1890       C  0.39221005  0.46617999  0.81533158     0.12600
C1891       C  0.31595075  0.40176707  0.83755124    -0.11800
H1892       H  0.26380923  0.39915805  0.77477561     0.12900
C1893       C  0.33913096  0.50453367  0.67464306    -0.22600
H1894       H  0.38966063  0.50840467  0.74000650     0.08500
C1895       C  0.41978106  0.46009376  0.79330167     0.04900
C1896       C  0.45258759  0.46839257  0.81963458    -0.19800
C1897       C  0.45729518  0.47782191  0.87106529    -0.12100
C1898       C  0.42773395  0.48228057  0.89357443     0.13600
C1899       C  0.39693643  0.47757222  0.86509277    -0.22500
C1900       C  0.41419725  0.44407942  0.74184372    -0.05600
H1901       H  0.47443489  0.46738004  0.79870126     0.15100
C1902       C  0.42760413  0.49340309  0.94723463    -0.15800
H1903       H  0.37584736  0.48231124  0.88237474     0.09400
H1904       H  0.36060343  0.50442566  0.64945365     0.07300
H1905       H  0.35010689  0.53314873  0.68890408     0.08500
H1906       H  0.31385282  0.49699081  0.65224177     0.07500
H1907       H  0.32304249  0.41558829  0.87444533     0.02400
H1908       H  0.33413798  0.38972140  0.83006836     0.02900
H1909       H  0.28630375  0.37860841  0.83941519     0.06400
H1910       H  0.43749759  0.43966760  0.72994995     0.05400
H1911       H  0.41233855  0.46332455  0.71547761    -0.00400
H1912       H  0.38767574  0.41679996  0.74082372     0.01100
H1913       H  0.43443137  0.52276751  0.94881477     0.04700
H1914       H  0.44722926  0.48951067  0.97061527     0.06700
H1915       H  0.39927940  0.47572845  0.96428455     0.07600
C1916       C  0.10181245  0.48525716  0.98330129    -0.22100
C1917       C  0.12818257  0.48642064  0.94875154     0.09900
C1918       C  0.12160180  0.48942911  0.89769390     0.10300
C1919       C  0.08811291  0.48789644  0.88313885    -0.17000
C1920       C  0.06173575  0.48857655  0.91722575    -0.27400
C1921       C  0.07101192  0.48934545  0.96909408     0.18600
C1922       C  0.16032595  0.48159386  0.96666405     0.12600
C1923       C  0.15012920  0.49662825  0.85700463    -0.11800
H1924       H  0.08412455  0.48902096  0.84379252     0.12900
C1925       C  0.05161554  0.49686918  0.01113695    -0.22600
H1926       H  0.10618416  0.48245773  0.02250073     0.08500
C1927       C  0.18339195  0.50069500  0.00830227     0.04900
C1928       C  0.20877416  0.49021737  0.02716334    -0.19800
C1929       C  0.21426701  0.46329192  0.00329162    -0.12100
C1930       C  0.19492051  0.44813668  0.95789964     0.13600
C1931       C  0.16677097  0.45538548  0.94253488    -0.22500
C1932       C  0.18269294  0.53268433  0.03333761    -0.05600
H1933       H  0.18399056  0.47091101  0.71144535     0.15100
C1934       C  0.20340144  0.42423665  0.92418733    -0.15800
H1935       H  0.14990664  0.44050350  0.91063535     0.09400
H1936       H  0.06633847  0.50117476  0.04720568     0.07300
H1937       H  0.02343203  0.47272411  0.01731132     0.08500
H1938       H  0.05105060  0.52267724  0.00383299     0.07500
H1939       H  0.13901521  0.47235321  0.83169344     0.02400
H1940       H  0.17768080  0.50262157  0.87156602     0.02900
H1941       H  0.15554283  0.52147477  0.83494606     0.06400
H1942       H  0.16344992  0.52095161  0.71460879     0.05400
H1943       H  0.17183020  0.52475949  0.07217678    -0.00400
H1944       H  0.16543053  0.54186731  0.01322192     0.01100
H1945       H  0.17862619  0.39568189  0.92276828     0.04700
H1946       H  0.22830113  0.42279241  0.93614705     0.06700
H1947       H  0.20970251  0.43625682  0.88587907     0.07600
C1948       C  0.90282968  0.08994166  0.67838015    -0.22100
C1949       C  0.92374790  0.12800766  0.66829263     0.12300
C1950       C  0.89966105  0.08483014  0.07256033     0.10300
C1951       C  0.91588201  0.06552685  0.05093176    -0.17000
C1952       C  0.95127270  0.08115214  0.63918261    -0.27400
C1953       C  0.91585951  0.06613928  0.66420399     0.18600
C1954       C  0.90560130  0.14997838  0.67851112     0.12600
C1955       C  0.92116176  0.11457959  0.11063686    -0.11800
H1956       H  0.94429183  0.07298625  0.06075752     0.12900
C1957       C  0.89071970  0.02523197  0.67527591    -0.22600
H1958       H  0.87538561  0.07865927  0.69605107     0.08500
C1959       C  0.86054666  0.13390181  0.04011733     0.04900
C1960       C  0.84351686  0.15515288  0.04837918    -0.19800
C1961       C  0.86139778  0.18117445  0.70506067    -0.12100
C1962       C  0.88557680  0.17922612  0.74065173     0.13600
C1963       C  0.90777185  0.16400113  0.72657543    -0.22500
C1964       C  0.88944748  0.14512344  0.99871705    -0.05600
H1965       H  0.85200632  0.17980175  0.02577303     0.15100
C1966       C  0.88738035  0.19103281  0.79422430    -0.15800
H1967       H  0.92557803  0.16144321  0.75392572     0.09400
H1968       H  0.88277119  0.00916396  0.64002971     0.07300
H1969       H  0.86419680  0.01914556  0.69451982     0.08500
H1970       H  0.90541875  0.01567254  0.70040877     0.07500
H1971       H  0.90426033  0.10806313  0.14550519     0.02400
H1972       H  0.92703263  0.14205288  0.09667931     0.02900
H1973       H  0.94839323  0.11665444  0.11969518     0.06400
H1974       H  0.89450137  0.17081619  0.97925874     0.05400
H1975       H  0.87951318  0.12259421  0.97067463    -0.00400
H1976       H  0.91665500  0.15043197  0.01375740     0.01100
H1977       H  0.88125904  0.16737499  0.81935077     0.04700
H1978       H  0.86676461  0.19973782  0.80353161     0.06700
H1979       H  0.91604774  0.21445412  0.80212248     0.07600
C1980       C  0.94180090  0.43023917  0.81261937    -0.22100
C1981       C  0.94326233  0.39749879  0.81032829     0.09900
C1982       C  0.97541819  0.39810624  0.82908756     0.10300
C1983       C  0.00422342  0.43051098  0.85186386    -0.17000
C1984       C  0.00277935  0.46375952  0.85690407    -0.27400
C1985       C  0.97086267  0.46314565  0.83414677     0.18600
C1986       C  0.91103449  0.36281718  0.78821410     0.12600
C1987       C  0.97866721  0.36372829  0.82698032    -0.11800
H1988       H  0.02664259  0.42822101  0.86846809     0.12900
C1989       C  0.96585012  0.49650724  0.83075347    -0.22600
H1990       H  0.91763190  0.43023930  0.79698655     0.08500
C1991       C  0.87770766  0.33919934  0.81570893     0.04900
C1992       C  0.85026953  0.30463395  0.79553003    -0.19800
C1993       C  0.85505997  0.29301871  0.74810099    -0.12100
C1994       C  0.88713629  0.31821046  0.71916451     0.13600
C1995       C  0.91469491  0.35224346  0.73974259    -0.22500
C1996       C  0.87204434  0.34965353  0.86747433    -0.05600
H1997       H  0.82626780  0.28555084  0.81827503     0.15100
C1998       C  0.85817643  0.27569678  0.01213279    -0.15800
H1999       H  0.93994840  0.37021146  0.71826785     0.09400
H2000       H  0.94252026  0.49241430  0.85562697     0.07300
H2001       H  0.95879336  0.49982796  0.79187127     0.08500
H2002       H  0.99132853  0.52286278  0.84004308     0.07500
H2003       H  0.97856747  0.35558397  0.78752629     0.02400
H2004       H  0.95459711  0.34059855  0.84734498     0.02900
H2005       H  0.00504442  0.36821889  0.84416964     0.06400
H2006       H  0.84486148  0.32819272  0.88423452     0.05400
H2007       H  0.87217423  0.37633096  0.86613274    -0.00400
H2008       H  0.89501213  0.35277049  0.89198432     0.01100
H2009       H  0.85971829  0.29480849  0.98208330     0.04700
H2010       H  0.83521690  0.24736202  0.00274994     0.06700
H2011       H  0.88503202  0.27555707  0.01262712     0.07600
C2012       C  0.63265206  0.10377308  0.05485544    -0.22100
C2013       C  0.62869817  0.09254307  0.00476621     0.09900
C2014       C  0.66008082  0.11096790  0.97212316     0.10300
C2015       C  0.69513461  0.13813305  0.99103627    -0.17000
C2016       C  0.69967773  0.14809688  0.04170761    -0.27400
C2017       C  0.66769703  0.13118092  0.07370408     0.18600
C2018       C  0.59146245  0.06220132  0.98666078     0.12600
C2019       C  0.65662592  0.10209629  0.91720448    -0.11800
H2020       H  0.71959186  0.15066613  0.96651444     0.12900
C2021       C  0.71815578  0.14070074  0.78681279    -0.22600
H2022       H  0.60843651  0.09040825  0.07974917     0.08500
C2023       C  0.58396904  0.02568489  0.97807034     0.04900
C2024       C  0.55034445  0.99988036  0.95419365    -0.19800
C2025       C  0.52386517  0.00968089  0.93762881    -0.12100
C2026       C  0.52775054  0.04280431  0.95951968     0.13600
C2027       C  0.56243907  0.06967213  0.97950695    -0.22500
C2028       C  0.61126661  0.01387460  0.99436076    -0.05600
H2029       H  0.54569763  0.97242239  0.94664330     0.15100
C2030       C  0.49542369  0.04890713  0.96988204    -0.15800
H2031       H  0.56623482  0.09611298  0.99182887     0.09400
H2032       H  0.71795096  0.11460652  0.79589047     0.07300
H2033       H  0.69627655  0.14199023  0.80970082     0.08500
H2034       H  0.74583597  0.16453870  0.79735317     0.07500
H2035       H  0.63540413  0.10765483  0.90046611     0.02400
H2036       H  0.64782779  0.07250520  0.91138299     0.02900
H2037       H  0.68374826  0.11927433  0.89707701     0.06400
H2038       H  0.60132271  0.98448215  0.98463500     0.05400
H2039       H  0.61463966  0.01675582  0.03547832    -0.00400
H2040       H  0.63907945  0.03137805  0.97615302     0.01100
H2041       H  0.49662777  0.05797161  0.00898835     0.04700
H2042       H  0.46807819  0.02291334  0.96758645     0.06700
H2043       H  0.49719927  0.07121511  0.94536705     0.07600
loop_ 
_geom_bond_atom_site_label_1 
_geom_bond_atom_site_label_2 
_geom_bond_distance 
_geom_bond_site_symmetry_2 
_ccdc_geom_bond_type 
C1            C6   1.403       .  A
C1         C1364   1.420       .  A
C1          C631   1.497       .  S
C2            C3   1.423       .  A
C2          C682   1.424       .  A
C2            H7   1.083       .  S
C3            C4   1.401       .  A
C3          C654   1.497       .  S
C4          C686   1.394       .  A
C4            H8   1.085       .  S
C5            C6   1.400       .  A
C5         C1366   1.398       .  A
C5          C599   1.479       .  S
C6            H9   1.085       .  S
C10          C11   1.403       .  A
C10         C696   1.432       .  A
C10         C567   1.518       .  S
C11         C693   1.389       .  A
C11          H16   1.084       .  S
C12          C13   1.387       .  A
C12        C1373   1.390       .  A
C12        C1865   1.469       .  S
C13          C14   1.405       .  A
C13          H17   1.085       .  S
C14          C15   1.430       .  A
C14         C526   1.507       .  S
C15        C1372   1.428       .  A
C15          H18   1.081       .  S
C19          C20   1.398       .  A
C19        C1386   1.426       .  A
C19         C439   1.500       .  S
C20        C1383   1.389       .  A
C20          H25   1.085       .  S
C21          C22   1.398       .  A
C21         C701   1.398       .  A
C21        C1079   1.486       .  S
C22          C23   1.403       .  A
C22          H26   1.083       .  S
C23          C24   1.419       .  A
C23         C471   1.493       .  S
C24         C700   1.419       .  A
C24          H27   1.083       .  S
C28          C29   1.399       .  A
C28         C714   1.423       .  A
C28         C375   1.504       .  S
C29         C711   1.395       .  A
C29          H34   1.085       .  S
C30          C31   1.402       .  A
C30        C1391   1.393       .  A
C30        C1673   1.482       .  S
C31          C32   1.408   1_556  A
C31          H35   1.083       .  S
C32          C33   1.417       .  A
C32         C334   1.492       .  S
C33        C1390   1.414       .  A
C33          H36   1.083       .  S
C37          C38   1.402       .  A
C37         C723   1.425       .  A
C37         C279   1.499       .  S
C38         C720   1.393       .  A
C38          H43   1.085       .  S
C39          C40   1.395   1_556  A
C39        C1400   1.393       .  A
C39         C215   1.483       .  S
C40          C41   1.411       .  A
C40          H44   1.081   1_554  S
C41          C42   1.432       .  A
C41         C238   1.523       .  S
C42        C1399   1.426       .  A
C42          H45   1.082       .  S
C46          C47   1.402       .  A
C46        C1413   1.431       .  A
C46         C142   1.501       .  S
C47        C1410   1.389   1_554  A
C47          H52   1.085       .  S
C48          C49   1.390       .  A
C48         C728   1.390       .  A
C48         C110   1.471       .  S
C49          C50   1.403       .  A
C49          H53   1.083       .  S
C50          C51   1.430       .  A
C50         C183   1.521       .  S
C51         C727   1.433       .  A
C51          H54   1.082       .  S
O55         Mg57   2.144       .  S
O55       Mg1425   2.143       .  S
O55          C90   1.233       .  S
C56          H95   1.079       .  S
C56          O69   1.237       .  S
C56          O93   1.271       .  A
Mg57       O1448   2.146   1_455  S
Mg57         O97   2.274   1_455  S
Mg57         O68   2.287   1_455  S
Mg57       O1463   2.305       .  S
O58         Mg83   2.129       .  S
O58       Mg1462   2.190   1_455  S
O58          C79   1.256   1_456  A
O59          C90   1.266       .  A
O59         Mg83   2.288   1_565  S
C60         C119   1.478       .  S
C60          O62   1.272       .  A
C60          O74   1.277       .  A
O61          C89   1.271       .  A
O61         Mg63   2.303       .  S
O62         Mg94   2.248       .  S
Mg63         O69   2.139   1_565  S
Mg63        O736   2.147       .  S
Mg63         O77   2.252       .  S
Mg63        O746   2.314   1_565  S
C64         C590   1.481   1_556  S
C64         O102   1.269   1_545  A
C64          O70   1.274       .  A
O65          C72   1.278       .  A
O65       Mg1425   2.344   1_545  S
H66          C79   1.078   1_455  S
C67          H92   1.081       .  S
C67          O81   1.232       .  S
C67          O82   1.271   1_545  A
O68          C91   1.268       .  A
O69        Mg764   2.155       .  S
O70       Mg1462   2.298       .  S
C71         C494   1.493       .  S
C71          O84   1.272       .  A
C71          O76   1.273       .  A
C72         C407   1.484       .  S
C72          O99   1.257       .  A
Mg73         O80   2.116       .  S
Mg73       O1443   2.166       .  S
Mg73         O75   2.273   1_556  S
Mg73        O102   2.246       .  S
Mg73       O1436   2.239       .  S
O74        Mg754   2.310       .  S
O75          C79   1.263   1_565  A
O76        Mg764   2.286       .  S
O77          C96   1.269       .  A
O78          C98   1.277       .  A
O78       Mg1456   2.309       .  S
O80       Mg1456   2.138       .  S
O80          C91   1.235       .  S
O81        Mg100   2.141   1_655  S
O81        Mg754   2.131   1_545  S
O82         Mg94   2.297       .  S
Mg83       O1431   2.156       .  S
Mg83         O99   2.148       .  S
Mg83       O1438   2.274       .  S
O84        Mg100   2.274       .  S
H85          C90   1.081       .  S
O86         Mg94   2.141       .  S
O86        Mg738   2.154   1_655  S
O86          C89   1.237   1_655  S
H87          C89   1.082       .  S
H88          C91   1.081       .  S
O93        Mg100   2.297       .  S
Mg94        O761   2.151       .  S
Mg94        O759   2.327       .  S
C96         C302   1.490       .  S
C96         O101   1.274       .  A
O97          C98   1.274       .  A
C98         C206   1.489       .  S
Mg100       O739   2.147       .  S
Mg100       O751   2.315   1_455  S
O101       Mg738   2.291       .  S
C103        C270   1.603       .  S
C103        C343   1.599   1_655  S
C103        C558   1.609   1_655  S
C103        C622   1.599       .  S
C104        C151   1.613       .  S
C104        C366   1.589       .  S
C104        C430   1.606   1_565  S
C104        C663   1.605   1_565  S
C105        C174   1.603       .  S
C105        C247   1.608       .  S
C105        C462   1.603       .  S
C105        C535   1.603       .  S
C106        C107   1.399       .  A
C106        C111   1.404       .  A
C106        H116   1.084       .  S
C107        C789   1.416       .  A
C107        C112   1.475       .  S
C108        C109   1.400       .  A
C108       C1469   1.415       .  A
C108        C113   1.509       .  S
C109       C1472   1.398       .  A
C109        H114   1.084   1_556  S
C110        C111   1.415       .  A
C110        C790   1.397       .  A
C111        C115   1.506       .  S
C112        C121   1.399       .  A
C112        C798   1.411       .  A
C113        H129   1.110       .  S
C113        H130   1.108       .  S
C113        H131   1.111   1_556  S
C115        H126   1.108       .  S
C115        H127   1.110       .  S
C115        H128   1.110       .  S
C117        C118   1.401       .  A
C117       C1474   1.412       .  A
C117        C122   1.508       .  S
C118       C1481   1.400       .  A
C118        H123   1.084       .  S
C119        C120   1.413       .  A
C119        C799   1.404       .  A
C120        C121   1.400       .  A
C120        C124   1.501       .  S
C121        H125   1.084       .  S
C122        H132   1.111       .  S
C122        H133   1.110       .  S
C122        H134   1.108       .  S
C124        H135   1.110       .  S
C124        H136   1.110       .  S
C124        H137   1.103       .  S
C138        C139   1.411       .  A
C138        C143   1.415       .  A
C138        H148   1.084       .  S
C139        C140   1.417       .  A
C139        C144   1.513       .  S
C140        C141   1.412       .  A
C140        C145   1.505       .  S
C141        C142   1.409       .  A
C141       H1508   1.084   1_554  S
C142        C143   1.414       .  A
C143        C147   1.505       .  S
C144        C149   1.404       .  A
C144        C153   1.407       .  A
C145        H161   1.108       .  S
C145        H162   1.104       .  S
C145       H1525   1.111   1_554  S
H146        C822   1.084       .  S
C147        H158   1.110       .  S
C147        H159   1.111       .  S
C147        H160   1.110       .  S
C149        C150   1.406       .  A
C149        C154   1.512       .  S
C150        C151   1.432       .  A
C150        H155   1.072       .  S
C151        C152   1.449       .  A
C152        C153   1.423       .  A
C152        C156   1.515   1_565  S
C153        H157   1.084       .  S
C154        H164   1.111       .  S
C154        H165   1.108       .  S
C154        H166   1.110       .  S
C156        H167   1.110       .  S
C156        H168   1.104       .  S
C156        H169   1.109       .  S
H163        C826   1.111       .  S
C170        C171   1.411       .  A
C170        C175   1.428       .  A
C170        H180   1.080       .  S
C171        C172   1.416       .  A
C171        C176   1.523       .  S
C172        C173   1.397       .  A
C172        C177   1.512       .  S
C173        C174   1.421       .  A
C173        H178   1.085       .  S
C174        C175   1.443       .  A
C175        C179   1.509       .  S
C176        C181   1.427       .  A
C176        C185   1.403       .  A
C177        H193   1.110       .  S
C177        H194   1.108       .  S
C177        H195   1.111       .  S
C179        H190   1.111       .  S
C179        H191   1.105       .  S
C179        H192   1.107       .  S
C181        C182   1.427       .  A
C181        C186   1.505       .  S
C182        C183   1.411       .  A
C182        H187   1.083       .  S
C183        C184   1.425       .  A
C184        C185   1.398       .  A
C184        C188   1.511       .  S
C185        H189   1.084       .  S
C186        H196   1.110       .  S
C186        H197   1.107       .  S
C186        H198   1.110       .  S
C188        H199   1.111       .  S
C188        H200   1.105       .  S
C188        H201   1.111       .  S
C202        C207   1.405       .  A
C202        C884   1.399       .  A
C202        H212   1.084       .  S
C203        C204   1.411       .  A
C203       C1564   1.402       .  A
C203        C208   1.484       .  S
C204        C205   1.404       .  A
C204        C209   1.508       .  S
C205        C206   1.408       .  A
C205        H210   1.084       .  S
C206       C1569   1.419       .  A
C207        C887   1.423       .  A
C207        C211   1.509       .  S
C208        C217   1.400       .  A
C208       C1575   1.415       .  A
C209        H225   1.110       .  S
C209        H226   1.108       .  S
C209        H227   1.111       .  S
C211        H222   1.111       .  S
C211        H223   1.109       .  S
C211        H224   1.110       .  S
C213        C214   1.409       .  A
C213        C889   1.412       .  A
C213        C218   1.503       .  S
C214        C896   1.403       .  A
C214        H219   1.084       .  S
C215        C216   1.416       .  A
C215       C1576   1.405       .  A
C216        C217   1.399       .  A
C216        C220   1.511   1_556  S
C217        H221   1.085       .  S
C218        H228   1.109       .  S
C218        H229   1.110       .  S
C218        H230   1.110       .  S
C220        H231   1.108       .  S
C220        H232   1.111       .  S
C220        H233   1.111       .  S
C234        C235   1.401       .  A
C234        C239   1.403       .  A
C234        H244   1.085       .  S
C235        C236   1.423       .  A
C235        C240   1.514       .  S
C236        C237   1.421       .  A
C236        C241   1.507       .  S
C237        C238   1.412       .  A
C237        H242   1.083       .  S
C238        C239   1.429       .  A
C239        C243   1.510       .  S
C240        C245   1.413       .  A
C240        C249   1.400       .  A
C241        H257   1.107       .  S
C241        H258   1.111       .  S
C241        H259   1.111       .  S
C243        H254   1.111       .  S
C243        H255   1.110       .  S
C243        H256   1.107       .  S
C245        C246   1.407       .  A
C245        C250   1.512       .  S
C246        C247   1.430       .  A
C246        H251   1.078       .  S
C247        C248   1.442       .  A
C248        C249   1.416       .  A
C248        C252   1.504       .  S
C249        H253   1.081       .  S
C250        H260   1.111       .  S
C250        H261   1.110       .  S
C250        H262   1.108       .  S
C252        H263   1.108       .  S
C252        H264   1.096       .  S
C252        H265   1.111       .  S
C266        C267   1.403       .  A
C266        C271   1.420       .  A
C266        H276   1.084       .  S
C267        C268   1.409       .  A
C267        C272   1.512       .  S
C268        C269   1.410       .  A
C268        C273   1.510       .  S
C269        C270   1.428       .  A
C269        H274   1.073       .  S
C270        C271   1.442       .  A
C271        C275   1.508       .  S
C272        C277   1.418       .  A
C272        C281   1.408       .  A
C273        H289   1.109       .  S
C273        H290   1.111       .  S
C273        H291   1.110       .  S
C275        H286   1.109       .  S
C275        H287   1.107       .  S
C275        H288   1.103       .  S
C277        C278   1.413       .  A
C277        C282   1.503       .  S
C278        C279   1.405       .  A
C278        H283   1.084       .  S
C279        C280   1.417       .  A
C280        C281   1.414       .  A
C280        C965   1.505       .  S
C281        H285   1.084       .  S
C282        H292   1.111       .  S
C282        H293   1.110       .  S
C282        H294   1.106       .  S
C284       C1642   1.505       .  S
C284        H295   1.111       .  S
C284        H296   1.108       .  S
C284        H297   1.110       .  S
C298        C299   1.400       .  A
C298        C303   1.404       .  A
C298        H308   1.084       .  S
C299        C981   1.407       .  A
C299        C304   1.480       .  S
C300        C301   1.403       .  A
C300       C1661   1.406       .  A
C300        C305   1.506       .  S
C301       C1664   1.411       .  A
C301        H306   1.084       .  S
C302        C303   1.423       .  A
C302        C982   1.410       .  A
C303        C307   1.509       .  S
C304        C309   1.407       .  A
C304        C994   1.401       .  A
C305        H321   1.110       .  S
C305        H322   1.111       .  S
C305        H323   1.111       .  S
C307        H318   1.111       .  S
C307        H319   1.110       .  S
C307        H320   1.111       .  S
C309        C310   1.405       .  A
C309        C314   1.506       .  S
C310        C311   1.411       .  A
C310        H315   1.084       .  S
C311        C993   1.417       .  A
C311        C711   1.489       .  S
C312        C313   1.401       .  A
C312       C1673   1.415       .  A
C312        C316   1.509   1_556  S
C313       C1666   1.402       .  A
C313        H317   1.084       .  S
C314        H324   1.111       .  S
C314        H325   1.110       .  S
C314        H326   1.109       .  S
C316        H327   1.111       .  S
C316        H328   1.110       .  S
C316        H329   1.107       .  S
C330        C331   1.403       .  A
C330        C335   1.405       .  A
C330        H340   1.084       .  S
C331        C332   1.418       .  A
C331        C336   1.500       .  S
C332        C333   1.412       .  A
C332        C337   1.505       .  S
C333        C334   1.404       .  A
C333        H338   1.084       .  S
C334        C335   1.418       .  A
C335        C339   1.506       .  S
C336        C341   1.405       .  A
C336        C345   1.399       .  A
C337        H353   1.107       .  S
C337        H354   1.109       .  S
C337        H355   1.111       .  S
C339        H350   1.111       .  S
C339        H351   1.110       .  S
C339        H352   1.106       .  S
C341        C342   1.403       .  A
C341        C346   1.509       .  S
C342        C343   1.426       .  A
C342        H347   1.081       .  S
C343        C344   1.444       .  A
C344        C345   1.418       .  A
C344        C348   1.507   1_455  S
C345        H349   1.084       .  S
C346        H356   1.111       .  S
C346        H357   1.109       .  S
C346        H358   1.110       .  S
C348        H359   1.094       .  S
C348        H360   1.107       .  S
C348        H361   1.105       .  S
C362        C363   1.401       .  A
C362        C367   1.415       .  A
C362        H372   1.084       .  S
C363        C364   1.406       .  A
C363        C368   1.503       .  S
C364        C365   1.410       .  A
C364        C369   1.506       .  S
C365        C366   1.426       .  A
C365        H370   1.081       .  S
C366        C367   1.441       .  A
C367        C371   1.512       .  S
C368        C373   1.412       .  A
C368        C377   1.406       .  A
C369        H385   1.110       .  S
C369        H386   1.110       .  S
C369        H387   1.111       .  S
C371        H382   1.104       .  S
C371        H383   1.111       .  S
C371        H384   1.104       .  S
C373        C374   1.410       .  A
C373        C378   1.506       .  S
C374        C375   1.412       .  A
C374        H379   1.084       .  S
C375        C376   1.419       .  A
C376        C377   1.414       .  A
C376        C380   1.505       .  S
C377        H381   1.084       .  S
C378        H388   1.111       .  S
C378        H389   1.110       .  S
C378        H390   1.110       .  S
C380        H391   1.110       .  S
C380        H392   1.106       .  S
C380        H393   1.111       .  S
C394        C395   1.401       .  A
C394        C399   1.397       .  A
C394        H404   1.085       .  S
C395       C1758   1.411   1_554  A
C395        C400   1.466       .  S
C396        C397   1.402       .  A
C396       C1076   1.410       .  A
C396        C401   1.507       .  S
C397       C1079   1.406       .  A
C397        H402   1.084       .  S
C398        C399   1.414       .  A
C398       C1759   1.403       .  A
C398       C1383   1.471       .  S
C399        C403   1.508       .  S
C400        C409   1.390       .  A
C400       C1767   1.408   1_554  A
C401        H417   1.110       .  S
C401        H418   1.111       .  S
C401        H419   1.111       .  S
C403        H414   1.110       .  S
C403        H415   1.109       .  S
C403        H416   1.108       .  S
C405        C406   1.407       .  A
C405       C1081   1.412       .  A
C405        C410   1.506       .  S
C406       C1088   1.403       .  A
C406        H411   1.084       .  S
C407        C408   1.430   1_556  A
C407       C1768   1.408       .  A
C408        C409   1.391       .  A
C408        C412   1.513       .  S
C409        H413   1.085       .  S
C410        H420   1.111       .  S
C410        H421   1.110       .  S
C410        H422   1.110       .  S
C412        H423   1.111       .  S
C412        H424   1.108       .  S
C412        H425   1.110       .  S
C426        C427   1.404       .  A
C426        C431   1.417       .  A
C426        H436   1.084       .  S
C427        C428   1.410       .  A
C427        C432   1.508       .  S
C428        C429   1.409       .  A
C428        C433   1.509       .  S
C429        C430   1.419       .  A
C429        H434   1.074       .  S
C430        C431   1.438       .  A
C431        C435   1.507       .  S
C432        C437   1.423       .  A
C432        C441   1.402       .  A
C433        H449   1.110       .  S
C433        H450   1.104       .  S
C433        H451   1.111       .  S
C435        H446   1.107       .  S
C435        H447   1.111       .  S
C435        H448   1.095   1_545  S
C437        C438   1.416       .  A
C437        C442   1.507       .  S
C438        C439   1.405       .  A
C438        H443   1.084       .  S
C439        C440   1.421       .  A
C440        C441   1.405       .  A
C440       C1806   1.507       .  S
C441        H445   1.083       .  S
C442        H452   1.110       .  S
C442        H453   1.110       .  S
C442        H454   1.109       .  S
C444       C1121   1.508       .  S
C444        H455   1.107       .  S
C444        H456   1.107       .  S
C444        H457   1.110       .  S
C458        C459   1.393       .  A
C458        C463   1.416       .  A
C458        H468   1.085       .  S
C459        C460   1.403       .  A
C459        C464   1.502       .  S
C460        C461   1.410       .  A
C460        C465   1.506       .  S
C461        C462   1.429       .  A
C461        H466   1.080       .  S
C462        C463   1.454       .  A
C463        C467   1.514       .  S
C464        C469   1.414       .  A
C464        C473   1.406       .  A
C465        H481   1.110       .  S
C465        H482   1.107       .  S
C465        H483   1.111       .  S
C467        H478   1.099       .  S
C467        H479   1.111       .  S
C467        H480   1.104       .  S
C469        C470   1.410       .  A
C469        C474   1.501       .  S
C470        C471   1.404       .  A
C470       H1156   1.084       .  S
C471        C472   1.418       .  A
C472        C473   1.411       .  A
C472        C476   1.507       .  S
C473        H477   1.084       .  S
C474        H485   1.109       .  S
C474        H486   1.105       .  S
C474       H1165   1.111       .  S
H475       C1832   1.085       .  S
C476        H487   1.111       .  S
C476        H488   1.109       .  S
C476        H489   1.110       .  S
H484       C1836   1.109       .  S
C490        C491   1.401       .  A
C490        C495   1.404       .  A
C490       H1181   1.083       .  S
C491        C492   1.408       .  A
C491        C496   1.479       .  S
C492        C493   1.401       .  A
C492        C497   1.508       .  S
C493        C494   1.411       .  A
C493        H498   1.083       .  S
C494        C495   1.420       .  A
C495       C1180   1.508       .  S
C496        C501   1.413       .  A
C496       C1186   1.402       .  A
C497        H513   1.110       .  S
C497        H514   1.108       .  S
C497        H515   1.111       .  S
C499       C1857   1.507       .  S
C499        H511   1.111       .  S
C499        H512   1.110       .  S
C499       H1872   1.110       .  S
H500       C1852   1.084       .  S
C501        C502   1.404       .  A
C501        C506   1.506       .  S
C502        C503   1.405       .  A
C502        H507   1.085       .  S
C503       C1185   1.413       .  A
C503        C693   1.475       .  S
C504        C505   1.399       .  A
C504       C1865   1.413       .  A
C504        C508   1.508       .  S
C505       C1858   1.400       .  A
C505        H509   1.083       .  S
C506        H516   1.110       .  S
C506        H517   1.109       .  S
C506        H518   1.110       .  S
C508        H519   1.110       .  S
C508        H520   1.108       .  S
C508        H521   1.108       .  S
H510       C1180   1.111       .  S
C522        C523   1.411       .  A
C522        C527   1.418       .  A
C522        H532   1.084       .  S
C523        C524   1.417       .  A
C523        C528   1.506       .  S
C524        C525   1.404       .  A
C524        C529   1.511       .  S
C525        C526   1.410       .  A
C525        H530   1.085       .  S
C526        C527   1.417       .  A
C527        C531   1.504       .  S
C528        C533   1.411       .  A
C528        C537   1.389       .  A
C529        H545   1.107       .  S
C529        H546   1.111       .  S
C529        H547   1.111       .  S
C531        H542   1.111       .  S
C531        H543   1.108       .  S
C531        H544   1.110   1_554  S
C533        C534   1.419       .  A
C533        C538   1.503       .  S
C534        C535   1.424       .  A
C534        H539   1.075       .  S
C535        C536   1.446       .  A
C536        C537   1.404       .  A
C536        C540   1.501       .  S
C537        H541   1.086       .  S
C538        H548   1.109       .  S
C538        H549   1.107       .  S
C538        H550   1.110       .  S
C540        H551   1.110       .  S
C540        H552   1.100       .  S
C540        H553   1.106       .  S
C554        C555   1.405       .  A
C554        C559   1.421       .  A
C554        H564   1.083       .  S
C555        C556   1.420       .  A
C555        C560   1.529       .  S
C556        C557   1.410       .  A
C556        C561   1.509       .  S
C557        C558   1.426       .  A
C557        H562   1.084       .  S
C558        C559   1.439       .  A
C559        C563   1.500       .  S
C560        C565   1.433       .  A
C560        C569   1.406       .  A
C561        H577   1.110       .  S
C561        H578   1.108       .  S
C561        H579   1.110       .  S
C563        H574   1.110       .  S
C563        H575   1.099   1_455  S
C563        H576   1.106       .  S
C565        C566   1.424       .  A
C565        C570   1.507       .  S
C566        C567   1.408       .  A
C566       H1252   1.083       .  S
C567        C568   1.424       .  A
C568        C569   1.402       .  A
C568        C572   1.511       .  S
C569        H573   1.082       .  S
C570        H581   1.110       .  S
C570        H582   1.108       .  S
C570       H1261   1.111       .  S
H571       C1928   1.084       .  S
C572        H583   1.111       .  S
C572        H584   1.109       .  S
C572        H585   1.111       .  S
H580       C1932   1.111       .  S
C586        C587   1.398       .  A
C586        C591   1.400       .  A
C586        H596   1.084       .  S
C587       C1950   1.409       .  A
C587        C592   1.475       .  S
C588        C589   1.405       .  A
C588       C1268   1.409       .  A
C588        C593   1.506       .  S
C589       C1271   1.408       .  A
C589        H594   1.084       .  S
C590        C591   1.418       .  A
C590       C1951   1.407       .  A
C591        C595   1.507   1_544  S
C592        C601   1.401       .  A
C592       C1959   1.412       .  A
C593        H609   1.110       .  S
C593        H610   1.111       .  S
C593        H611   1.111       .  S
C595        H606   1.107   1_565  S
C595        H607   1.111       .  S
C595        H608   1.110       .  S
C597        C598   1.402       .  A
C597       C1273   1.412       .  A
C597        C602   1.507       .  S
C598       C1280   1.403       .  A
C598        H603   1.084       .  S
C599        C600   1.417       .  A
C599       C1960   1.402       .  A
C600        C601   1.404       .  A
C600        C604   1.507       .  S
C601        H605   1.084       .  S
C602        H612   1.111       .  S
C602        H613   1.107       .  S
C602        H614   1.110       .  S
C604        H615   1.110       .  S
C604        H616   1.108       .  S
C604        H617   1.110       .  S
C618        C619   1.397       .  A
C618        C623   1.413       .  A
C618        H628   1.085       .  S
C619        C620   1.409       .  A
C619        C624   1.508       .  S
C620        C621   1.413       .  A
C620        C625   1.508       .  S
C621        C622   1.427       .  A
C621        H626   1.075       .  S
C622        C623   1.444       .  A
C623        C627   1.508       .  S
C624        C629   1.417       .  A
C624        C633   1.405       .  A
C625        H641   1.109       .  S
C625        H642   1.111       .  S
C625        H643   1.111       .  S
C627        H638   1.103       .  S
C627        H639   1.111       .  S
C627        H640   1.103       .  S
C629        C630   1.412       .  A
C629        C634   1.501       .  S
C630        C631   1.403       .  A
C630        H635   1.084       .  S
C631        C632   1.421       .  A
C632        C633   1.412       .  A
C632       C1998   1.507       .  S
C633        H637   1.084       .  S
C634        H644   1.111       .  S
C634        H645   1.109       .  S
C634        H646   1.108       .  S
C636       C1313   1.502       .  S
C636        H647   1.108       .  S
C636        H648   1.109       .  S
C636        H649   1.111       .  S
C650        C651   1.404       .  A
C650        C655   1.410       .  A
C650        H660   1.082       .  S
C651        C652   1.415       .  A
C651        C656   1.504       .  S
C652        C653   1.413       .  A
C652        C657   1.505       .  S
C653        C654   1.406       .  A
C653        H658   1.084       .  S
C654        C655   1.419       .  A
C655       C1340   1.506       .  S
C656        C661   1.412       .  A
C656        C665   1.394       .  A
C657        H673   1.110       .  S
C657        H674   1.110       .  S
C657        H675   1.111       .  S
C659       C2017   1.504       .  S
C659        H670   1.110       .  S
C659        H671   1.111       .  S
C659        H672   1.108       .  S
C661        C662   1.416       .  A
C661        C666   1.506       .  S
C662        C663   1.421       .  A
C662        H667   1.079   1_545  S
C663        C664   1.438       .  A
C664        C665   1.409       .  A
C664        C668   1.504       .  S
C665        H669   1.084       .  S
C666        H676   1.111       .  S
C666        H677   1.110       .  S
C666        H678   1.110       .  S
C668        H679   1.106       .  S
C668        H680   1.095       .  S
C668        H681   1.105       .  S
C682        C687   1.404       .  A
C682       C1312   1.501       .  S
C683       C1363   1.429       .  A
C683        C684   1.429       .  A
C683        H688   1.082       .  S
C684        C685   1.400       .  A
C684       C1335   1.505       .  S
C685       C1367   1.398       .  A
C685        H689   1.085       .  S
C686        C687   1.395       .  A
C686       C1280   1.472       .  S
C687        H690   1.085       .  S
C691        C692   1.403       .  A
C691       C1377   1.428       .  A
C691       C1248   1.514       .  S
C692       C1374   1.391       .  A
C692        H697   1.084       .  S
C693        C694   1.392       .  A
C694        C695   1.407       .  A
C694        H698   1.085       .  S
C695        C696   1.435       .  A
C695       C1207   1.513       .  S
C696        H699   1.082       .  S
C700        C701   1.408       .  A
C700       C1120   1.506       .  S
C701        H706   1.084       .  S
C702       C1382   1.391       .  A
C702        C703   1.393       .  A
C702       C1760   1.471       .  S
C703        C704   1.401       .  A
C703        H707   1.085       .  S
C704        C705   1.428       .  A
C704       C1152   1.500       .  S
C705       C1381   1.428       .  A
C705        H708   1.082       .  S
C709        C710   1.400       .  A
C709       C1395   1.414       .  A
C709       C1056   1.491       .  S
C710       C1392   1.401       .  A
C710        H715   1.085       .  S
C711        C712   1.404       .  A
C712        C713   1.412       .  A
C712        H716   1.083       .  S
C713        C714   1.425       .  A
C713       C1015   1.508       .  S
C714        H717   1.083       .  S
C718        C719   1.396       .  A
C718       C1404   1.423       .  A
C718        C960   1.495       .  S
C719       C1401   1.391       .  A
C719        H724   1.085       .  S
C720        C721   1.397       .  A
C720        C896   1.479       .  S
C721        C722   1.412       .  A
C721        H725   1.082       .  S
C722        C723   1.430       .  A
C722        C919   1.524       .  S
C723        H726   1.082       .  S
C727        C728   1.405       .  A
C727        C823   1.503       .  S
C728        H733   1.084       .  S
C729       C1409   1.393       .  A
C729        C730   1.392       .  A
C729        C791   1.476       .  S
C730        C731   1.403       .  A
C730        H734   1.085       .  S
C731        C732   1.422       .  A
C731        C864   1.503       .  S
C732       C1408   1.424       .  A
C732        H735   1.083       .  S
O736       Mg738   2.137       .  S
O736        C771   1.236       .  S
C737        H776   1.081       .  S
C737        O750   1.236       .  S
C737        O774   1.272       .  A
Mg738       O778   2.256   1_455  S
Mg738       O749   2.290   1_455  S
O739       Mg764   2.130       .  S
O739        C760   1.237       .  S
O740        C771   1.269   1_545  A
O740       Mg764   2.295       .  S
C741        C800   1.475       .  S
C741        O743   1.272       .  A
C741        O755   1.269       .  A
O742        C770   1.274       .  A
O742       Mg744   2.316       .  S
O743       Mg775   2.282       .  S
Mg744      O1417   2.138       .  S
Mg744       O750   2.147   1_565  S
Mg744       O758   2.258       .  S
Mg744      O1427   2.309   1_565  S
C745       C1271   1.488       .  S
C745        O783   1.271       .  A
C745        O751   1.277       .  A
O746        C753   1.274       .  A
H747        C760   1.081       .  S
C748        H773   1.081       .  S
C748        O762   1.237       .  S
C748        O763   1.271       .  A
O749        C772   1.268       .  A
O750      Mg1445   2.154       .  S
C752       C1175   1.491       .  S
C752        O765   1.268       .  A
C752        O757   1.274       .  A
C753       C1088   1.469       .  S
C753        O780   1.269       .  A
Mg754       O761   2.134       .  S
Mg754       O756   2.295   1_565  S
Mg754       O783   2.251   1_565  S
O755      Mg1435   2.269       .  S
O756        C760   1.270   1_655  A
O757      Mg1445   2.300       .  S
O758        C777   1.269       .  A
O759        C779   1.277       .  A
O761        C772   1.235       .  S
O762      Mg1435   2.160       .  S
O762       Mg781   2.135   1_665  S
O763       Mg775   2.302       .  S
Mg764       O780   2.248       .  S
O765       Mg781   2.246       .  S
H766        C771   1.081       .  S
O767      Mg1419   2.163       .  S
O767       Mg775   2.153   1_455  S
O767        C770   1.238       .  S
H768        C770   1.081   1_655  S
H769        C772   1.081       .  S
O774       Mg781   2.310       .  S
Mg775      O1442   2.135       .  S
Mg775      O1440   2.275       .  S
C777        C983   1.486       .  S
C777        O782   1.274       .  A
O778        C779   1.270       .  A
C779        C887   1.493       .  S
Mg781      O1420   2.138       .  S
Mg781      O1432   2.301   1_455  S
O782      Mg1419   2.294       .  S
C784        C951   1.603       .  S
C784       C1024   1.612   1_655  S
C784       C1239   1.610   1_655  S
C784       C1303   1.596       .  S
C785        C832   1.614       .  S
C785       C1047   1.587       .  S
C785       C1111   1.608   1_565  S
C785       C1344   1.616   1_565  S
C786        C855   1.602       .  S
C786        C928   1.610       .  S
C786       C1143   1.605       .  S
C786       C1216   1.602       .  S
C787        C788   1.399       .  A
C787        C792   1.400       .  A
C787        H797   1.084       .  S
C788       C1470   1.411       .  A
C788        C793   1.477       .  S
C789        C790   1.398       .  A
C789        C794   1.510       .  S
C790        H795   1.084       .  S
C791       C1471   1.404       .  A
C791        C792   1.416       .  A
C792        C796   1.510       .  S
C793       C1479   1.414       .  A
C793        C802   1.397       .  A
C794        H810   1.110       .  S
C794        H811   1.108       .  S
C794        H812   1.111       .  S
C796        H807   1.111       .  S
C796        H808   1.111       .  S
C796        H809   1.109       .  S
C798        C799   1.401       .  A
C798        C803   1.507       .  S
C799        H804   1.084       .  S
C800       C1480   1.401       .  A
C800        C801   1.419       .  A
C801        C802   1.399       .  A
C801        C805   1.509       .  S
C802        H806   1.084       .  S
C803        H813   1.111       .  S
C803        H814   1.110       .  S
C803        H815   1.109       .  S
C805        H816   1.109       .  S
C805        H817   1.106       .  S
C805        H818   1.110       .  S
C819        C820   1.409       .  A
C819        C824   1.416       .  A
C819        H829   1.084       .  S
C820        C821   1.414       .  A
C820        C825   1.507       .  S
C821        C822   1.412       .  A
C821        C826   1.507       .  S
C822        C823   1.410       .  A
C823        C824   1.416       .  A
C824        C828   1.506       .  S
C825        C830   1.400       .  A
C825        C834   1.405       .  A
C826        H842   1.110       .  S
C826        H843   1.111       .  S
H827       C1503   1.084       .  S
C828        H839   1.110       .  S
C828        H840   1.111       .  S
C828        H841   1.110       .  S
C830        C831   1.405       .  A
C830        C835   1.511       .  S
C831        C832   1.435       .  A
C831        H836   1.072       .  S
C832        C833   1.447       .  A
C833        C834   1.423       .  A
C833        C837   1.513   1_565  S
C834        H838   1.084       .  S
C835        H845   1.111       .  S
C835        H846   1.110       .  S
C835        H847   1.111       .  S
C837        H848   1.110       .  S
C837        H849   1.105       .  S
C837        H850   1.108       .  S
H844       C1507   1.111       .  S
C851        C852   1.407       .  A
C851        C856   1.423       .  A
C851        H861   1.083       .  S
C852        C853   1.412       .  A
C852        C857   1.513       .  S
C853        C854   1.400       .  A
C853        C858   1.510       .  S
C854        C855   1.424       .  A
C854        H859   1.084       .  S
C855        C856   1.442       .  A
C856        C860   1.509       .  S
C857        C862   1.424       .  A
C857        C866   1.405       .  A
C858        H874   1.110       .  S
C858        H875   1.107       .  S
C858        H876   1.111       .  S
C860        H871   1.111       .  S
C860        H872   1.106       .  S
C860        H873   1.103       .  S
C862        C863   1.420       .  A
C862        C867   1.508       .  S
C863        C864   1.407       .  A
C863        H868   1.084       .  S
C864        C865   1.420       .  A
C865        C866   1.401       .  A
C865        C869   1.511       .  S
C866        H870   1.084       .  S
C867        H877   1.111       .  S
C867        H878   1.107       .  S
C867        H879   1.111       .  S
C869        H880   1.110       .  S
C869        H881   1.109       .  S
C869        H882   1.111       .  S
C883       C1565   1.401       .  A
C883        C888   1.404       .  A
C883        H893   1.084       .  S
C884        C885   1.410       .  A
C884        C889   1.484       .  S
C885        C886   1.407       .  A
C885        C890   1.506       .  S
C886        C887   1.409       .  A
C886        H891   1.084       .  S
C888       C1568   1.416       .  A
C888        C892   1.508       .  S
C889        C898   1.399       .  A
C890        H906   1.110       .  S
C890        H907   1.110       .  S
C890        H908   1.111       .  S
C892        H903   1.111       .  S
C892        H904   1.110   1_655  S
C892        H905   1.110       .  S
C894       C1570   1.410       .  A
C894        C895   1.400       .  A
C894        C899   1.507       .  S
C895       C1577   1.402       .  A
C895        H900   1.085       .  S
C896        C897   1.416       .  A
C897        C898   1.400       .  A
C897        C901   1.508       .  S
C898        H902   1.085       .  S
C899        H909   1.111       .  S
C899        H910   1.110       .  S
C899        H911   1.110       .  S
C901        H912   1.110       .  S
C901        H913   1.107       .  S
C901        H914   1.110       .  S
C915        C916   1.402       .  A
C915        C920   1.402       .  A
C915        H925   1.085       .  S
C916        C917   1.426       .  A
C916        C921   1.517       .  S
C917        C918   1.421       .  A
C917        C922   1.507       .  S
C918        C919   1.412       .  A
C918        H923   1.083       .  S
C919        C920   1.427       .  A
C920        C924   1.508       .  S
C921        C926   1.414       .  A
C921        C930   1.402       .  A
C922        H938   1.108       .  S
C922        H939   1.106       .  S
C922        H940   1.111       .  S
C924        H935   1.111       .  S
C924        H936   1.110       .  S
C924        H937   1.103       .  S
C926        C927   1.407       .  A
C926        C931   1.512       .  S
C927        C928   1.430       .  A
C927        H932   1.079       .  S
C928        C929   1.442       .  A
C929        C930   1.418       .  A
C929        C933   1.504       .  S
C930        H934   1.082       .  S
C931        H941   1.111       .  S
C931        H942   1.110       .  S
C931        H943   1.107       .  S
C933        H944   1.111       .  S
C933        H945   1.091       .  S
C933        H946   1.110       .  S
C947        C948   1.395       .  A
C947        C952   1.414       .  A
C947        H957   1.085       .  S
C948        C949   1.409       .  A
C948        C953   1.507       .  S
C949        C950   1.413       .  A
C949        C954   1.509       .  S
C950        C951   1.427       .  A
C950        H955   1.074       .  S
C951        C952   1.448       .  A
C952        C956   1.508       .  S
C953        C958   1.419       .  A
C953        C962   1.404       .  A
C954        H970   1.109       .  S
C954        H971   1.110       .  S
C954        H972   1.111       .  S
C956        H967   1.107       .  S
C956        H968   1.107       .  S
C956        H969   1.103       .  S
C958        C959   1.412       .  A
C958        C963   1.503       .  S
C959        C960   1.403       .  A
C959        H964   1.084       .  S
C960        C961   1.421       .  A
C961        C962   1.410       .  A
C961       C1646   1.507       .  S
C962        H966   1.084       .  S
C963        H973   1.111       .  S
C963        H974   1.110       .  S
C963        H975   1.108       .  S
C965        H976   1.111       .  S
C965        H977   1.109       .  S
C965        H978   1.110       .  S
C979        C980   1.401       .  A
C979        C984   1.404       .  A
C979        H989   1.084       .  S
C980       C1662   1.414       .  A
C980        C985   1.487       .  S
C981        C982   1.401       .  A
C981        C986   1.507       .  S
C982        H987   1.084       .  S
C983       C1663   1.404       .  A
C983        C984   1.421       .  A
C984        C988   1.509       .  S
C985        C990   1.413       .  A
C985       C1675   1.402       .  A
C986       H1002   1.109       .  S
C986       H1003   1.111       .  S
C986       H1004   1.111       .  S
C988        H999   1.111       .  S
C988       H1000   1.110       .  S
C988       H1001   1.110       .  S
C990        C991   1.406       .  A
C990        C995   1.508       .  S
C991        C992   1.409       .  A
C991        H996   1.084       .  S
C992       C1674   1.417       .  A
C992       C1392   1.492       .  S
C993        C994   1.401       .  A
C993        C997   1.506       .  S
C994        H998   1.085       .  S
C995       H1005   1.110       .  S
C995       H1006   1.108       .  S
C995       H1007   1.103       .  S
C997       H1008   1.111       .  S
C997       H1009   1.105       .  S
C997       H1010   1.108       .  S
C1011      C1012   1.399       .  A
C1011      C1016   1.408       .  A
C1011      H1021   1.085       .  S
C1012      C1013   1.418       .  A
C1012      C1017   1.507       .  S
C1013      C1014   1.419       .  A
C1013      C1018   1.504       .  S
C1014      C1015   1.408       .  A
C1014      H1019   1.084       .  S
C1015      C1016   1.421       .  A
C1016      C1020   1.499       .  S
C1017      C1022   1.406       .  A
C1017      C1026   1.395       .  A
C1018      H1034   1.110       .  S
C1018      H1035   1.109       .  S
C1018      H1036   1.111       .  S
C1020      H1031   1.111       .  S
C1020      H1032   1.109       .  S
C1020      H1033   1.102       .  S
C1022      C1023   1.413       .  A
C1022      C1027   1.506       .  S
C1023      C1024   1.430       .  A
C1023      H1028   1.084       .  S
C1024      C1025   1.447       .  A
C1025      C1026   1.419       .  A
C1025      C1029   1.506   1_455  S
C1026      H1030   1.085       .  S
C1027      H1037   1.111       .  S
C1027      H1038   1.110       .  S
C1027      H1039   1.111       .  S
C1029      H1040   1.094       .  S
C1029      H1041   1.107       .  S
C1029      H1042   1.105   1_655  S
C1043      C1044   1.393       .  A
C1043      C1048   1.408       .  A
C1043      H1053   1.084       .  S
C1044      C1045   1.406       .  A
C1044      C1049   1.495       .  S
C1045      C1046   1.414       .  A
C1045      C1050   1.505       .  S
C1046      C1047   1.424       .  A
C1046      H1051   1.081       .  S
C1047      C1048   1.446       .  A
C1048      C1052   1.515       .  S
C1049      C1054   1.412       .  A
C1049      C1058   1.405       .  A
C1050      H1066   1.110       .  S
C1050      H1067   1.108       .  S
C1050      H1068   1.106       .  S
C1052      H1063   1.104       .  S
C1052      H1064   1.110       .  S
C1052      H1065   1.103       .  S
C1054      C1055   1.409       .  A
C1054      C1059   1.506       .  S
C1055      C1056   1.407       .  A
C1055      H1060   1.084       .  S
C1056      C1057   1.417       .  A
C1057      C1058   1.409       .  A
C1057      C1061   1.507       .  S
C1058      H1062   1.084       .  S
C1059      H1069   1.111       .  S
C1059      H1070   1.110       .  S
C1059      H1071   1.109       .  S
C1061      H1072   1.111       .  S
C1061      H1073   1.108       .  S
C1061      H1074   1.110       .  S
C1075      C1076   1.402       .  A
C1075      C1080   1.405       .  A
C1075      H1085   1.084       .  S
C1076      C1081   1.480       .  S
C1077      C1757   1.409       .  A
C1077      C1078   1.404       .  A
C1077      C1082   1.506       .  S
C1078      C1760   1.405       .  A
C1078      H1083   1.084       .  S
C1079      C1080   1.417       .  A
C1080      C1084   1.508       .  S
C1081      C1090   1.401       .  A
C1082      H1098   1.108       .  S
C1082      H1099   1.110       .  S
C1082      H1100   1.111       .  S
C1084      H1095   1.111       .  S
C1084      H1096   1.107       .  S
C1084      H1097   1.109       .  S
C1086      C1762   1.408       .  A
C1086      C1087   1.401       .  A
C1086      C1091   1.506       .  S
C1087      C1769   1.407       .  A
C1087      H1092   1.083       .  S
C1088      C1089   1.410       .  A
C1089      C1090   1.401       .  A
C1089      C1093   1.508       .  S
C1090      H1094   1.082       .  S
C1091      H1101   1.111       .  S
C1091      H1102   1.109       .  S
C1091      H1103   1.110       .  S
C1093      H1104   1.111       .  S
C1093      H1105   1.110       .  S
C1093      H1106   1.111       .  S
C1107      C1108   1.405       .  A
C1107      C1112   1.421       .  A
C1107      H1117   1.081       .  S
C1108      C1109   1.404       .  A
C1108      C1113   1.505       .  S
C1109      C1110   1.405       .  A
C1109      C1114   1.511       .  S
C1110      C1111   1.422       .  A
C1110      H1115   1.071       .  S
C1111      C1112   1.444       .  A
C1112      C1116   1.512       .  S
C1113      C1118   1.418       .  A
C1113      C1122   1.399       .  A
C1114      H1130   1.110       .  S
C1114      H1131   1.106       .  S
C1114      H1132   1.110       .  S
C1116      H1127   1.106       .  S
C1116      H1128   1.109       .  S
C1116      H1129   1.096   1_545  S
C1118      C1119   1.419       .  A
C1118      C1123   1.507       .  S
C1119      C1120   1.409       .  A
C1119      H1124   1.083       .  S
C1120      C1121   1.420       .  A
C1121      C1122   1.403       .  A
C1122      H1126   1.076       .  S
C1123      H1133   1.111       .  S
C1123      H1134   1.110       .  S
C1123      H1135   1.107       .  S
C1125      C1802   1.508       .  S
C1125      H1136   1.111       .  S
C1125      H1137   1.109       .  S
C1125      H1138   1.110       .  S
C1139      C1140   1.398       .  A
C1139      C1144   1.421       .  A
C1139      H1149   1.084       .  S
C1140      C1141   1.405       .  A
C1140      C1145   1.513       .  S
C1141      C1142   1.411       .  A
C1141      C1146   1.507       .  S
C1142      C1143   1.427       .  A
C1142      H1147   1.079       .  S
C1143      C1144   1.454       .  A
C1144      C1148   1.516       .  S
C1145      C1150   1.419       .  A
C1145      C1154   1.409       .  A
C1146      H1162   1.109       .  S
C1146      H1163   1.110       .  S
C1146      H1164   1.110       .  S
C1148      H1159   1.100       .  S
C1148      H1160   1.111       .  S
C1148      H1161   1.103       .  S
C1150      C1151   1.413       .  A
C1150      C1155   1.506       .  S
C1151      C1152   1.407       .  A
C1151      H1837   1.084       .  S
C1152      C1153   1.418       .  A
C1153      C1154   1.414       .  A
C1153      C1157   1.506       .  S
C1154      H1158   1.084       .  S
C1155      H1846   1.110       .  S
C1155      H1166   1.110       .  S
C1155      H1167   1.108       .  S
C1157      H1168   1.110       .  S
C1157      H1169   1.109       .  S
C1157      H1170   1.110       .  S
C1171      C1172   1.399       .  A
C1171      C1176   1.404       .  A
C1171      H1862   1.084       .  S
C1172      C1173   1.406       .  A
C1172      C1177   1.478       .  S
C1173      C1174   1.401       .  A
C1173      C1178   1.507       .  S
C1174      C1175   1.411       .  A
C1174      H1179   1.083       .  S
C1175      C1176   1.423       .  A
C1176      C1861   1.509       .  S
C1177      C1182   1.408       .  A
C1177      C1867   1.402       .  A
C1178      H1194   1.110       .  S
C1178      H1195   1.110       .  S
C1178      H1196   1.111       .  S
C1180      H1192   1.111       .  S
C1180      H1193   1.109       .  S
C1182      C1183   1.403       .  A
C1182      C1187   1.505       .  S
C1183      C1184   1.407       .  A
C1183      H1188   1.085       .  S
C1184      C1866   1.414       .  A
C1184      C1374   1.478       .  S
C1185      C1186   1.397       .  A
C1185      C1189   1.508       .  S
C1186      H1190   1.085       .  S
C1187      H1197   1.111       .  S
C1187      H1198   1.109       .  S
C1187      H1199   1.110       .  S
C1189      H1200   1.111       .  S
C1189      H1201   1.108       .  S
C1189      H1202   1.110       .  S
H1191      C1861   1.110       .  S
C1203      C1204   1.411       .  A
C1203      C1208   1.419       .  A
C1203      H1213   1.084       .  S
C1204      C1205   1.416       .  A
C1204      C1209   1.515       .  S
C1205      C1206   1.411       .  A
C1205      C1210   1.509       .  S
C1206      C1207   1.412       .  A
C1206      H1211   1.084       .  S
C1207      C1208   1.421       .  A
C1208      C1212   1.505       .  S
C1209      C1214   1.411       .  A
C1209      C1218   1.393       .  A
C1210      H1226   1.109       .  S
C1210      H1227   1.111       .  S
C1210      H1228   1.111       .  S
C1212      H1223   1.111       .  S
C1212      H1224   1.110       .  S
C1212      H1225   1.105       .  S
C1214      C1215   1.416       .  A
C1214      C1219   1.495       .  S
C1215      C1216   1.418       .  A
C1215      H1220   1.075       .  S
C1216      C1217   1.448       .  A
C1217      C1218   1.411       .  A
C1217      C1221   1.502       .  S
C1218      H1222   1.084       .  S
C1219      H1229   1.110       .  S
C1219      H1230   1.106       .  S
C1219      H1231   1.110       .  S
C1221      H1232   1.110       .  S
C1221      H1233   1.098       .  S
C1221      H1234   1.111       .  S
C1235      C1236   1.406       .  A
C1235      C1240   1.423       .  A
C1235      H1245   1.083       .  S
C1236      C1237   1.417       .  A
C1236      C1241   1.526       .  S
C1237      C1238   1.406       .  A
C1237      C1242   1.510       .  S
C1238      C1239   1.426       .  A
C1238      H1243   1.084       .  S
C1239      C1240   1.443       .  A
C1240      C1244   1.505       .  S
C1241      C1246   1.431       .  A
C1241      C1250   1.407       .  A
C1242      H1258   1.110       .  S
C1242      H1259   1.107       .  S
C1242      H1260   1.109       .  S
C1244      H1255   1.106       .  S
C1244      H1256   1.092   1_455  S
C1244      H1257   1.107       .  S
C1246      C1247   1.421       .  A
C1246      C1251   1.508       .  S
C1247      C1248   1.408       .  A
C1247      H1933   1.084       .  S
C1248      C1249   1.423       .  A
C1249      C1250   1.403       .  A
C1249      C1253   1.511       .  S
C1250      H1254   1.083       .  S
C1251      H1942   1.111       .  S
C1251      H1262   1.110       .  S
C1251      H1263   1.107       .  S
C1253      H1264   1.110       .  S
C1253      H1265   1.109       .  S
C1253      H1266   1.111       .  S
C1267      C1268   1.397       .  A
C1267      C1272   1.399       .  A
C1267      H1277   1.085       .  S
C1268      C1273   1.478       .  S
C1269      C1949   1.406       .  A
C1269      C1270   1.402       .  A
C1269      C1274   1.506       .  S
C1270      C1952   1.411       .  A
C1270      H1275   1.084   1_655  S
C1271      C1272   1.421       .  A
C1272      C1276   1.504       .  S
C1273      C1282   1.401       .  A
C1274      H1290   1.110       .  S
C1274      H1291   1.110       .  S
C1274      H1292   1.111   1_655  S
C1276      H1287   1.109       .  S
C1276      H1288   1.111       .  S
C1276      H1289   1.109       .  S
C1278      C1954   1.409       .  A
C1278      C1279   1.398       .  A
C1278      C1283   1.508       .  S
C1279      C1961   1.404       .  A
C1279      H1284   1.084       .  S
C1280      C1281   1.413       .  A
C1281      C1282   1.401       .  A
C1281      C1285   1.508       .  S
C1282      H1286   1.084       .  S
C1283      H1293   1.111       .  S
C1283      H1294   1.110       .  S
C1283      H1295   1.110       .  S
C1285      H1296   1.110       .  S
C1285      H1297   1.108       .  S
C1285      H1298   1.110       .  S
C1299      C1300   1.396       .  A
C1299      C1304   1.413       .  A
C1299      H1309   1.085       .  S
C1300      C1301   1.408       .  A
C1300      C1305   1.502       .  S
C1301      C1302   1.411       .  A
C1301      C1306   1.508       .  S
C1302      C1303   1.426       .  A
C1302      H1307   1.076       .  S
C1303      C1304   1.446       .  A
C1304      C1308   1.509       .  S
C1305      C1310   1.417       .  A
C1305      C1314   1.397       .  A
C1306      H1322   1.110       .  S
C1306      H1323   1.110       .  S
C1306      H1324   1.111       .  S
C1308      H1319   1.103       .  S
C1308      H1320   1.111       .  S
C1308      H1321   1.104       .  S
C1310      C1311   1.417       .  A
C1310      C1315   1.503       .  S
C1311      C1312   1.407       .  A
C1311      H1316   1.084       .  S
C1312      C1313   1.419       .  A
C1313      C1314   1.404       .  A
C1314      H1318   1.080       .  S
C1315      H1325   1.111       .  S
C1315      H1326   1.110       .  S
C1315      H1327   1.109       .  S
C1317      C1994   1.510       .  S
C1317      H1328   1.107       .  S
C1317      H1329   1.108       .  S
C1317      H1330   1.110       .  S
C1331      C1332   1.406       .  A
C1331      C1336   1.416       .  A
C1331      H1341   1.084       .  S
C1332      C1333   1.415       .  A
C1332      C1337   1.509       .  S
C1333      C1334   1.415       .  A
C1333      C1338   1.505       .  S
C1334      C1335   1.408       .  A
C1334      H1339   1.084       .  S
C1335      C1336   1.421       .  A
C1336      C2021   1.506       .  S
C1337      C1342   1.411       .  A
C1337      C1346   1.395       .  A
C1338      H1354   1.110       .  S
C1338      H1355   1.110       .  S
C1338      H1356   1.111       .  S
C1340      H1351   1.110       .  S
C1340      H1352   1.110       .  S
C1340      H1353   1.109       .  S
C1342      C1343   1.418       .  A
C1342      C1347   1.505       .  S
C1343      C1344   1.424       .  A
C1343      H1348   1.080   1_545  S
C1344      C1345   1.443       .  A
C1345      C1346   1.413       .  A
C1345      C1349   1.505       .  S
C1346      H1350   1.085       .  S
C1347      H1357   1.111       .  S
C1347      H1358   1.110       .  S
C1347      H1359   1.110       .  S
C1349      H1360   1.109       .  S
C1349      H1361   1.102       .  S
C1349      H1362   1.110       .  S
C1363      C1368   1.402       .  A
C1363      C1993   1.508       .  S
C1364      C1365   1.420       .  A
C1364      H1369   1.083       .  S
C1365      C1366   1.401       .  A
C1365      C2016   1.494       .  S
C1366      H1370   1.085       .  S
C1367      C1368   1.394       .  A
C1367      C1961   1.477       .  S
C1368      H1371   1.085       .  S
C1372      C1373   1.403       .  A
C1372      C1929   1.509       .  S
C1373      H1378   1.084       .  S
C1374      C1375   1.396       .  A
C1375      C1376   1.406       .  A
C1375      H1379   1.085       .  S
C1376      C1377   1.430       .  A
C1376      C1888   1.506       .  S
C1377      H1380   1.082       .  S
C1381      C1382   1.404       .  A
C1381      C1801   1.506       .  S
C1382      H1387   1.085       .  S
C1383      C1384   1.393       .  A
C1384      C1385   1.403       .  A
C1384      H1388   1.085       .  S
C1385      C1386   1.429       .  A
C1385      C1833   1.503       .  S
C1386      H1389   1.082       .  S
C1390      C1391   1.396   1_554  A
C1390      C1737   1.486       .  S
C1391      H1396   1.085       .  S
C1392      C1393   1.404       .  A
C1393      C1394   1.409       .  A
C1393      H1397   1.082       .  S
C1394      C1395   1.416       .  A
C1394      C1696   1.496       .  S
C1395      H1398   1.083       .  S
C1399      C1400   1.400   1_554  A
C1399      C1641   1.502       .  S
C1400      H1405   1.085       .  S
C1401      C1402   1.400       .  A
C1401      C1577   1.477       .  S
C1402      C1403   1.406       .  A
C1402      H1406   1.084       .  S
C1403      C1404   1.425       .  A
C1403      C1600   1.503       .  S
C1404      H1407   1.083       .  S
C1408      C1409   1.402       .  A
C1408      C1504   1.492       .  S
C1409      H1414   1.084       .  S
C1410      C1411   1.394       .  A
C1410      C1472   1.470       .  S
C1411      C1412   1.405       .  A
C1411      H1415   1.084       .  S
C1412      C1413   1.430   1_556  A
C1412      C1545   1.519       .  S
C1413      H1416   1.082       .  S
O1417     Mg1419   2.143       .  S
O1417      C1452   1.235       .  S
C1418      H1457   1.081       .  S
C1418      O1431   1.240       .  S
C1418      O1455   1.275       .  A
Mg1419     O1459   2.269   1_455  S
Mg1419     O1430   2.291       .  S
O1420     Mg1445   2.123       .  S
O1420      C1441   1.234       .  S
O1421      C1452   1.269   1_545  A
O1421     Mg1445   2.300       .  S
C1422      C1481   1.466       .  S
C1422      O1424   1.274       .  A
C1422      O1436   1.268       .  A
O1423      C1451   1.273       .  A
O1423     Mg1425   2.310       .  S
O1424     Mg1456   2.286       .  S
Mg1425     O1431   2.157   1_565  S
Mg1425     O1439   2.251       .  S
C1426      C1952   1.489       .  S
C1426      O1464   1.266       .  A
C1426      O1432   1.274       .  A
O1427      C1434   1.275       .  A
H1428      C1441   1.081       .  S
C1429      H1454   1.081   1_565  S
C1429      O1443   1.239       .  S
C1429      O1444   1.273       .  A
O1430      C1453   1.267   1_455  A
C1433      C1856   1.481       .  S
C1433      O1446   1.270       .  A
C1433      O1438   1.271       .  A
C1434      C1769   1.484       .  S
C1434      O1461   1.267       .  A
Mg1435     O1442   2.114       .  S
Mg1435     O1437   2.282   1_665  S
Mg1435     O1464   2.228   1_565  S
O1437      C1441   1.266       .  A
O1439      C1458   1.270       .  A
O1440      C1460   1.272       .  A
O1442      C1453   1.233       .  S
O1443     Mg1462   2.127   1_565  S
O1444     Mg1456   2.303       .  S
Mg1445     O1461   2.237       .  S
O1446     Mg1462   2.265   1_455  S
H1447      C1452   1.081       .  S
O1448     Mg1456   2.147       .  S
O1448      C1451   1.237   1_655  S
H1449      C1451   1.079       .  S
H1450      C1453   1.079       .  S
O1455     Mg1462   2.315   1_455  S
C1458      C1664   1.491       .  S
C1458      O1463   1.276       .  A
O1459      C1460   1.272       .  A
C1460      C1568   1.477       .  S
C1465      C1632   1.604       .  S
C1465      C1705   1.597       .  S
C1465      C1920   1.607       .  S
C1465      C1984   1.597       .  S
C1466      C1513   1.617       .  S
C1466      C1728   1.590       .  S
C1466      C1792   1.608   1_565  S
C1466      C2025   1.593   1_565  S
C1467      C1536   1.611       .  S
C1467      C1609   1.609       .  S
C1467      C1824   1.607       .  S
C1467      C1897   1.598       .  S
C1468      C1469   1.398       .  A
C1468      C1473   1.400       .  A
C1468      H1478   1.084       .  S
C1469      C1474   1.473       .  S
C1470      C1471   1.402       .  A
C1470      C1475   1.506       .  S
C1471      H1476   1.084       .  S
C1472      C1473   1.413       .  A
C1473      C1477   1.505       .  S
C1474      C1483   1.399       .  A
C1475      H1491   1.107       .  S
C1475      H1492   1.110       .  S
C1475      H1493   1.110       .  S
C1477      H1488   1.104       .  S
C1477      H1489   1.111       .  S
C1477      H1490   1.110       .  S
C1479      C1480   1.405       .  A
C1479      C1484   1.507       .  S
C1480      H1485   1.084       .  S
C1481      C1482   1.415       .  A
C1482      C1483   1.399       .  A
C1482      C1486   1.507       .  S
C1483      H1487   1.084       .  S
C1484      H1494   1.111       .  S
C1484      H1495   1.110       .  S
C1484      H1496   1.111       .  S
C1486      H1497   1.110       .  S
C1486      H1498   1.109       .  S
C1486      H1499   1.107       .  S
C1500      C1501   1.410       .  A
C1500      C1505   1.409       .  A
C1500      H1510   1.084       .  S
C1501      C1502   1.417       .  A
C1501      C1506   1.505       .  S
C1502      C1503   1.411       .  A
C1502      C1507   1.506       .  S
C1503      C1504   1.407       .  A
C1504      C1505   1.410       .  A
C1505      C1509   1.504       .  S
C1506      C1511   1.402       .  A
C1506      C1515   1.405       .  A
C1507      H1523   1.108       .  S
C1507      H1524   1.105       .  S
C1509      H1520   1.111       .  S
C1509      H1521   1.106       .  S
C1509      H1522   1.110       .  S
C1511      C1512   1.400       .  A
C1511      C1516   1.513       .  S
C1512      C1513   1.431       .  A
C1512      H1517   1.063       .  S
C1513      C1514   1.451       .  A
C1514      C1515   1.422       .  A
C1514      C1518   1.514   1_565  S
C1515      H1519   1.083       .  S
C1516      H1526   1.111       .  S
C1516      H1527   1.110       .  S
C1516      H1528   1.108       .  S
C1518      H1529   1.110       .  S
C1518      H1530   1.103       .  S
C1518      H1531   1.109       .  S
C1532      C1533   1.406       .  A
C1532      C1537   1.424       .  A
C1532      H1542   1.084   1_556  S
C1533      C1534   1.416       .  A
C1533      C1538   1.523       .  S
C1534      C1535   1.405       .  A
C1534      C1539   1.511       .  S
C1535      C1536   1.426       .  A
C1535      H1540   1.084       .  S
C1536      C1537   1.444       .  A
C1537      C1541   1.503   1_556  S
C1538      C1543   1.428   1_556  A
C1538      C1547   1.404       .  A
C1539      H1555   1.111       .  S
C1539      H1556   1.107       .  S
C1539      H1557   1.111       .  S
C1541      H1552   1.111       .  S
C1541      H1553   1.105       .  S
C1541      H1554   1.099       .  S
C1543      C1544   1.423       .  A
C1543      C1548   1.507       .  S
C1544      C1545   1.409   1_554  A
C1544      H1549   1.084       .  S
C1545      C1546   1.426       .  A
C1546      C1547   1.404       .  A
C1546      C1550   1.509       .  S
C1547      H1551   1.084       .  S
C1548      H1558   1.110       .  S
C1548      H1559   1.110       .  S
C1548      H1560   1.107       .  S
C1550      H1561   1.110       .  S
C1550      H1562   1.103       .  S
C1550      H1563   1.111       .  S
C1564      C1569   1.405       .  A
C1564      H1574   1.082       .  S
C1565      C1566   1.406       .  A
C1565      C1570   1.473       .  S
C1566      C1567   1.399       .  A
C1566      C1571   1.507       .  S
C1567      C1568   1.407       .  A
C1567      H1572   1.084       .  S
C1569      C1573   1.508       .  S
C1570      C1579   1.399       .  A
C1571      H1587   1.108       .  S
C1571      H1588   1.110       .  S
C1571      H1589   1.111       .  S
C1573      H1584   1.111       .  S
C1573      H1585   1.109       .  S
C1573      H1586   1.111       .  S
C1575      C1576   1.409       .  A
C1575      C1580   1.505       .  S
C1576      H1581   1.084       .  S
C1577      C1578   1.417       .  A
C1578      C1579   1.402       .  A
C1578      C1582   1.509       .  S
C1579      H1583   1.084       .  S
C1580      H1590   1.105       .  S
C1580      H1591   1.109       .  S
C1580      H1592   1.110       .  S
C1582      H1593   1.107       .  S
C1582      H1594   1.108       .  S
C1582      H1595   1.109       .  S
C1596      C1597   1.402       .  A
C1596      C1601   1.410       .  A
C1596      H1606   1.084       .  S
C1597      C1598   1.416       .  A
C1597      C1602   1.503       .  S
C1598      C1599   1.416       .  A
C1598      C1603   1.506       .  S
C1599      C1600   1.407       .  A
C1599      H1604   1.084       .  S
C1600      C1601   1.423       .  A
C1601      C1605   1.508       .  S
C1602      C1607   1.409       .  A
C1602      C1611   1.395       .  A
C1603      H1619   1.110       .  S
C1603      H1620   1.110       .  S
C1603      H1621   1.111       .  S
C1605      H1616   1.111       .  S
C1605      H1617   1.108       .  S
C1605      H1618   1.111       .  S
C1607      C1608   1.411       .  A
C1607      C1612   1.509       .  S
C1608      C1609   1.428       .  A
C1608      H1613   1.077       .  S
C1609      C1610   1.446       .  A
C1610      C1611   1.414       .  A
C1610      C1614   1.506       .  S
C1611      H1615   1.085       .  S
C1612      H1622   1.111       .  S
C1612      H1623   1.110       .  S
C1612      H1624   1.108       .  S
C1614      H1625   1.108       .  S
C1614      H1626   1.094       .  S
C1614      H1627   1.111       .  S
C1628      C1629   1.400       .  A
C1628      C1633   1.417       .  A
C1628      H1638   1.085       .  S
C1629      C1630   1.410       .  A
C1629      C1634   1.513       .  S
C1630      C1631   1.413   1_655  A
C1630      C1635   1.509       .  S
C1631      C1632   1.427       .  A
C1631      H1636   1.074       .  S
C1632      C1633   1.444   1_455  A
C1633      C1637   1.509       .  S
C1634      C1639   1.417       .  A
C1634      C1643   1.409   1_556  A
C1635      H1651   1.109       .  S
C1635      H1652   1.111       .  S
C1635      H1653   1.111       .  S
C1637      H1648   1.110       .  S
C1637      H1649   1.111       .  S
C1637      H1650   1.102       .  S
C1639      C1640   1.411       .  A
C1639      C1644   1.505       .  S
C1640      C1641   1.406   1_556  A
C1640      H1645   1.084       .  S
C1641      C1642   1.419       .  A
C1642      C1643   1.416       .  A
C1643      H1647   1.084       .  S
C1644      H1654   1.111       .  S
C1644      H1655   1.109       .  S
C1644      H1656   1.106       .  S
C1646      H1657   1.109       .  S
C1646      H1658   1.109       .  S
C1646      H1659   1.110       .  S
C1660      C1661   1.397       .  A
C1660      C1665   1.402       .  A
C1660      H1670   1.085       .  S
C1661      C1666   1.476       .  S
C1662      C1663   1.401       .  A
C1662      C1667   1.504       .  S
C1663      H1668   1.084       .  S
C1664      C1665   1.425       .  A
C1665      C1669   1.510       .  S
C1666      C1671   1.406       .  A
C1667      H1683   1.108       .  S
C1667      H1684   1.103       .  S
C1667      H1685   1.111       .  S
C1669      H1680   1.111       .  S
C1669      H1681   1.110       .  S
C1669      H1682   1.110       .  S
C1671      C1672   1.403       .  A
C1671      C1676   1.505       .  S
C1672      C1673   1.409       .  A
C1672      H1677   1.084       .  S
C1674      C1675   1.402       .  A
C1674      C1678   1.507       .  S
C1675      H1679   1.084       .  S
C1676      H1686   1.111       .  S
C1676      H1687   1.110       .  S
C1676      H1688   1.109       .  S
C1678      H1689   1.111       .  S
C1678      H1690   1.108       .  S
C1678      H1691   1.107       .  S
C1692      C1693   1.400       .  A
C1692      C1697   1.405       .  A
C1692      H1702   1.085       .  S
C1693      C1694   1.417       .  A
C1693      C1698   1.496       .  S
C1694      C1695   1.412       .  A
C1694      C1699   1.507       .  S
C1695      C1696   1.405       .  A
C1695      H1700   1.084       .  S
C1696      C1697   1.420       .  A
C1697      C1701   1.504       .  S
C1698      C1703   1.405       .  A
C1698      C1707   1.394       .  A
C1699      H1715   1.109       .  S
C1699      H1716   1.110       .  S
C1699      H1717   1.111       .  S
C1701      H1712   1.108       .  S
C1701      H1713   1.110       .  S
C1701      H1714   1.106       .  S
C1703      C1704   1.409       .  A
C1703      C1708   1.507       .  S
C1704      C1705   1.427       .  A
C1704      H1709   1.080       .  S
C1705      C1706   1.444       .  A
C1706      C1707   1.411       .  A
C1706      C1710   1.505       .  S
C1707      H1711   1.085       .  S
C1708      H1718   1.111       .  S
C1708      H1719   1.110       .  S
C1708      H1720   1.110       .  S
C1710      H1721   1.100       .  S
C1710      H1722   1.103       .  S
C1710      H1723   1.111       .  S
C1724      C1725   1.396       .  A
C1724      C1729   1.407       .  A
C1724      H1734   1.085       .  S
C1725      C1726   1.403   1_556  A
C1725      C1730   1.492       .  S
C1726      C1727   1.411   1_554  A
C1726      C1731   1.507       .  S
C1727      C1728   1.427       .  A
C1727      H1732   1.078       .  S
C1728      C1729   1.447       .  A
C1729      C1733   1.516       .  S
C1730      C1735   1.411   1_556  A
C1730      C1739   1.405       .  A
C1731      H1747   1.110       .  S
C1731      H1748   1.107       .  S
C1731      H1749   1.104       .  S
C1733      H1744   1.110       .  S
C1733      H1745   1.112       .  S
C1733      H1746   1.101       .  S
C1735      C1736   1.407       .  A
C1735      C1740   1.507       .  S
C1736      C1737   1.408       .  A
C1736      H1741   1.084       .  S
C1737      C1738   1.415   1_554  A
C1738      C1739   1.408       .  A
C1738      C1742   1.506       .  S
C1739      H1743   1.084       .  S
C1740      H1750   1.111       .  S
C1740      H1751   1.110       .  S
C1740      H1752   1.108       .  S
C1742      H1753   1.110       .  S
C1742      H1754   1.108       .  S
C1742      H1755   1.110       .  S
C1756      C1757   1.402       .  A
C1756      C1761   1.397       .  A
C1756      H1766   1.085       .  S
C1757      C1762   1.475       .  S
C1758      C1759   1.397   1_556  A
C1758      C1763   1.510       .  S
C1759      H1764   1.084   1_554  S
C1760      C1761   1.412       .  A
C1761      C1765   1.509       .  S
C1762      C1771   1.399       .  A
C1763      H1779   1.110       .  S
C1763      H1780   1.107       .  S
C1763      H1781   1.111       .  S
C1765      H1776   1.110       .  S
C1765      H1777   1.110       .  S
C1765      H1778   1.107       .  S
C1767      C1768   1.403       .  A
C1767      C1772   1.507       .  S
C1768      H1773   1.083       .  S
C1769      C1770   1.420       .  A
C1770      C1771   1.401       .  A
C1770      C1774   1.509       .  S
C1771      H1775   1.085       .  S
C1772      H1782   1.111       .  S
C1772      H1783   1.110       .  S
C1772      H1784   1.107       .  S
C1774      H1785   1.111       .  S
C1774      H1786   1.109       .  S
C1774      H1787   1.110       .  S
C1788      C1789   1.404       .  A
C1788      C1793   1.412       .  A
C1788      H1798   1.084       .  S
C1789      C1790   1.414       .  A
C1789      C1794   1.507       .  S
C1790      C1791   1.413       .  A
C1790      C1795   1.511       .  S
C1791      C1792   1.426       .  A
C1791      H1796   1.077       .  S
C1792      C1793   1.428       .  A
C1793      C1797   1.505       .  S
C1794      C1799   1.420       .  A
C1794      C1803   1.402       .  A
C1795      H1811   1.110       .  S
C1795      H1812   1.104       .  S
C1795      H1813   1.111       .  S
C1797      H1808   1.107       .  S
C1797      H1809   1.109       .  S
C1797      H1810   1.096   1_545  S
C1799      C1800   1.420       .  A
C1799      C1804   1.507       .  S
C1800      C1801   1.409       .  A
C1800      H1805   1.084       .  S
C1801      C1802   1.422       .  A
C1802      C1803   1.403       .  A
C1803      H1807   1.084       .  S
C1804      H1814   1.111       .  S
C1804      H1815   1.110       .  S
C1804      H1816   1.104       .  S
C1806      H1817   1.108   1_554  S
C1806      H1818   1.110   1_554  S
C1806      H1819   1.111       .  S
C1820      C1821   1.396       .  A
C1820      C1825   1.418       .  A
C1820      H1830   1.084       .  S
C1821      C1822   1.405       .  A
C1821      C1826   1.509   1_556  S
C1822      C1823   1.412       .  A
C1822      C1827   1.506   1_556  S
C1823      C1824   1.430       .  A
C1823      H1828   1.081       .  S
C1824      C1825   1.455       .  A
C1825      C1829   1.515       .  S
C1826      C1831   1.418       .  A
C1826      C1835   1.410   1_554  A
C1827      H1843   1.109   1_554  S
C1827      H1844   1.109       .  S
C1827      H1845   1.111   1_554  S
C1829      H1840   1.098       .  S
C1829      H1841   1.111       .  S
C1829      H1842   1.104       .  S
C1831      C1832   1.407       .  A
C1831      C1836   1.506       .  S
C1832      C1833   1.408       .  A
C1833      C1834   1.419       .  A
C1834      C1835   1.416   1_554  A
C1834      C1838   1.506   1_554  S
C1835      H1839   1.084       .  S
C1836      H1847   1.110       .  S
C1836      H1848   1.106       .  S
C1838      H1849   1.111       .  S
C1838      H1850   1.106       .  S
C1838      H1851   1.110       .  S
C1852      C1853   1.401   1_556  A
C1852      C1857   1.403       .  A
C1853      C1854   1.406       .  A
C1853      C1858   1.472       .  S
C1854      C1855   1.400       .  A
C1854      C1859   1.508       .  S
C1855      C1856   1.409   1_554  A
C1855      H1860   1.084       .  S
C1856      C1857   1.415       .  A
C1858      C1863   1.411       .  A
C1859      H1875   1.109       .  S
C1859      H1876   1.108       .  S
C1859      H1877   1.111       .  S
C1861      H1873   1.111       .  S
C1861      H1874   1.109       .  S
C1863      C1864   1.400       .  A
C1863      C1868   1.508   1_554  S
C1864      C1865   1.402       .  A
C1864      H1869   1.085   1_554  S
C1866      C1867   1.401       .  A
C1866      C1870   1.508       .  S
C1867      H1871   1.085       .  S
C1868      H1878   1.111       .  S
C1868      H1879   1.110       .  S
C1868      H1880   1.109       .  S
C1870      H1881   1.111       .  S
C1870      H1882   1.106       .  S
C1870      H1883   1.110       .  S
C1884      C1885   1.410       .  A
C1884      C1889   1.417       .  A
C1884      H1894   1.084       .  S
C1885      C1886   1.414       .  A
C1885      C1890   1.511       .  S
C1886      C1887   1.412       .  A
C1886      C1891   1.507       .  S
C1887      C1888   1.410       .  A
C1887      H1892   1.084       .  S
C1888      C1889   1.419       .  A
C1889      C1893   1.506       .  S
C1890      C1895   1.409       .  A
C1890      C1899   1.398       .  A
C1891      H1907   1.109       .  S
C1891      H1908   1.111       .  S
C1891      H1909   1.111       .  S
C1893      H1904   1.110       .  S
C1893      H1905   1.110       .  S
C1893      H1906   1.107       .  S
C1895      C1896   1.411       .  A
C1895      C1900   1.500       .  S
C1896      C1897   1.421       .  A
C1896      H1901   1.076       .  S
C1897      C1898   1.449       .  A
C1898      C1899   1.414       .  A
C1898      C1902   1.512       .  S
C1899      H1903   1.084       .  S
C1900      H1910   1.110       .  S
C1900      H1911   1.100       .  S
C1900      H1912   1.110       .  S
C1902      H1913   1.110       .  S
C1902      H1914   1.102       .  S
C1902      H1915   1.111       .  S
C1916      C1917   1.403       .  A
C1916      C1921   1.419       .  A
C1916      H1926   1.083   1_556  S
C1917      C1918   1.414       .  A
C1917      C1922   1.519       .  S
C1918      C1919   1.408       .  A
C1918      C1923   1.510       .  S
C1919      C1920   1.425       .  A
C1919      H1924   1.073       .  S
C1920      C1921   1.441       .  A
C1921      C1925   1.498   1_556  S
C1922      C1927   1.428   1_556  A
C1922      C1931   1.405       .  A
C1923      H1939   1.110       .  S
C1923      H1940   1.107       .  S
C1923      H1941   1.111       .  S
C1925      H1936   1.111       .  S
C1925      H1937   1.097       .  S
C1925      H1938   1.105       .  S
C1927      C1928   1.419       .  A
C1927      C1932   1.507       .  S
C1928      C1929   1.406       .  A
C1929      C1930   1.423   1_554  A
C1930      C1931   1.404       .  A
C1930      C1934   1.510       .  S
C1931      H1935   1.084       .  S
C1932      H1943   1.110       .  S
C1932      H1944   1.107       .  S
C1934      H1945   1.110       .  S
C1934      H1946   1.109       .  S
C1934      H1947   1.111       .  S
C1948      C1949   1.395       .  A
C1948      C1953   1.398       .  A
C1948      H1958   1.085       .  S
C1949      C1954   1.471       .  S
C1950      C1951   1.403       .  A
C1950      C1955   1.507       .  S
C1951      H1956   1.084       .  S
C1952      C1953   1.424       .  A
C1953      C1957   1.509       .  S
C1954      C1963   1.399       .  A
C1955      H1971   1.108       .  S
C1955      H1972   1.108       .  S
C1955      H1973   1.111       .  S
C1957      H1968   1.110       .  S
C1957      H1969   1.111       .  S
C1957      H1970   1.109       .  S
C1959      C1960   1.398       .  A
C1959      C1964   1.510   1_554  S
C1960      H1965   1.085       .  S
C1961      C1962   1.417       .  A
C1962      C1963   1.402       .  A
C1962      C1966   1.508       .  S
C1963      H1967   1.085       .  S
C1964      H1974   1.111       .  S
C1964      H1975   1.110       .  S
C1964      H1976   1.108   1_556  S
C1966      H1977   1.111       .  S
C1966      H1978   1.107       .  S
C1966      H1979   1.110       .  S
C1980      C1981   1.398       .  A
C1980      C1985   1.415       .  A
C1980      H1990   1.085       .  S
C1981      C1982   1.410       .  A
C1981      C1986   1.510       .  S
C1982      C1983   1.414   1_655  A
C1982      C1987   1.507       .  S
C1983      C1984   1.424       .  A
C1983      H1988   1.076       .  S
C1984      C1985   1.444   1_455  A
C1985      C1989   1.509       .  S
C1986      C1991   1.418       .  A
C1986      C1995   1.403       .  A
C1987      H2003   1.110       .  S
C1987      H2004   1.110       .  S
C1987      H2005   1.111   1_655  S
C1989      H2000   1.105       .  S
C1989      H2001   1.111       .  S
C1989      H2002   1.100       .  S
C1991      C1992   1.419       .  A
C1991      C1996   1.505       .  S
C1992      C1993   1.408       .  A
C1992      H1997   1.084       .  S
C1993      C1994   1.424       .  A
C1994      C1995   1.411       .  A
C1995      H1999   1.084       .  S
C1996      H2006   1.111       .  S
C1996      H2007   1.110       .  S
C1996      H2008   1.110       .  S
C1998      H2009   1.111   1_554  S
C1998      H2010   1.109       .  S
C1998      H2011   1.110       .  S
C2012      C2013   1.405       .  A
C2012      C2017   1.412       .  A
C2012      H2022   1.084       .  S
C2013      C2014   1.414   1_554  A
C2013      C2018   1.498   1_554  S
C2014      C2015   1.410       .  A
C2014      C2019   1.508       .  S
C2015      C2016   1.406   1_556  A
C2015      H2020   1.084       .  S
C2016      C2017   1.417       .  A
C2018      C2023   1.412       .  A
C2018      C2027   1.395       .  A
C2019      H2035   1.110       .  S
C2019      H2036   1.108       .  S
C2019      H2037   1.110       .  S
C2021      H2032   1.111       .  S
C2021      H2033   1.110       .  S
C2021      H2034   1.109       .  S
C2023      C2024   1.413   1_545  A
C2023      C2028   1.506       .  S
C2024      C2025   1.420   1_565  A
C2024      H2029   1.081       .  S
C2025      C2026   1.434       .  A
C2026      C2027   1.408       .  A
C2026      C2030   1.502       .  S
C2027      H2031   1.085       .  S
C2028      H2038   1.110   1_545  S
C2028      H2039   1.110   1_556  S
C2028      H2040   1.108       .  S
C2030      H2041   1.107   1_556  S
C2030      H2042   1.102       .  S
C2030      H2043   1.109       .  S
