geometry optimzed in LAMMPS
_audit_creation_date              2020-11-30 
_audit_creation_method            'lammps2cif' 
_symmetry_space_group_name_H-M    'P1' 
_symmetry_Int_Tables_number       1 
_symmetry_cell_setting            triclinic 
loop_ 
_symmetry_equiv_pos_as_xyz 
  x,y,z 
_cell_length_a                    51.02068392 
_cell_length_b                    50.88031272705392 
_cell_length_c                    42.283691858236445 
_cell_angle_alpha                 90.44731504619931 
_cell_angle_beta                  89.9152776012606 
_cell_angle_gamma                 120.07132858848887 
loop_ 
_atom_site_label 
_atom_site_type_symbol 
_atom_site_fract_x 
_atom_site_fract_y 
_atom_site_fract_z 
_atom_site_charge 
C1          C  0.21745264  0.22062349  0.15101766     0.80500
N2          N  0.24004086  0.24344640  0.16788632    -0.77800
C3          C  0.26589657  0.26437589  0.15369142     0.82900
N4          N  0.26890641  0.26275438  0.12199266    -0.77700
C5          C  0.24630482  0.24013234  0.10462753     0.83000
N6          N  0.22064302  0.21873892  0.11925597    -0.79500
C7          C  0.23295858  0.21543404  0.02050989     0.80500
N8          N  0.22836133  0.21659548  0.05206442    -0.77800
C9          C  0.25023214  0.23902040  0.07028420     0.82900
N10         N  0.27627435  0.26063908  0.05667120    -0.77700
C11         C  0.28091622  0.25969044  0.02520978     0.83000
N12         N  0.25930523  0.23682849  0.00734333    -0.79500
C13         C  0.24651293  0.47445295  0.14985424     0.80500
N14         N  0.22265613  0.47164106  0.16662234    -0.77800
C15         C  0.19946600  0.47264847  0.15209075     0.82900
N16         N  0.20005185  0.47605243  0.12007274    -0.77700
C17         C  0.22399514  0.47863035  0.10304815     0.83000
N18         N  0.24727528  0.47825069  0.11818887    -0.79500
C19         C  0.25359118  0.49054542  0.02142501     0.80500
N20         N  0.23221400  0.49344483  0.00554760    -0.77800
C21         C  0.20740733  0.49062785  0.02053044     0.82900
N22         N  0.20431378  0.48552291  0.05225713    -0.77700
C23         C  0.22598007  0.48299279  0.06856095     0.83000
N24         N  0.25035768  0.48512574  0.05292474    -0.79500
C25         C  0.50126540  0.24323419  0.15273199     0.80500
N26         N  0.49381231  0.24090626  0.12155079    -0.77800
C27         C  0.49089708  0.21704819  0.10411097     0.82900
N28         N  0.49469580  0.19521514  0.11815694    -0.77700
C29         C  0.50195034  0.19724222  0.14924007     0.83000
N30         N  0.50544619  0.22149128  0.16639232    -0.79500
C31         C  0.47367030  0.23153502  0.02262407     0.80500
N32         N  0.48130302  0.23590384  0.05393057    -0.77800
C33         C  0.48301673  0.21381911  0.07035488     0.82900
N34         N  0.47765563  0.18798162  0.05533895    -0.77700
C35         C  0.47035145  0.18357396  0.02433006     0.83000
N36         N  0.46822129  0.20533191  0.00805289    -0.79500
O37         O  0.41938431  0.99893253  0.29541093    -0.87900
C38         C  0.07362058  0.06623522  0.38310038     1.12100
O39         O  0.45401843  0.47622899  0.33636220    -1.35700
O40         O  0.05445952  0.07162498  0.30510492    -0.89400
O41         O  0.39120496  0.44916148  0.30478564    -0.90000
O42         O  0.45519014  0.44592422  0.26954335    -0.78900
O43         O  0.48671518  0.03583743  0.30752195    -1.01000
C44         C  0.04077650  0.47576696  0.27948950     1.22200
O45         O  0.48680659  0.44607901  0.33693687    -1.35900
Mn46       Mn  0.48546505  0.47731854  0.37161828     1.82100
O47         O  0.01781422  0.47662542  0.27062459    -0.77900
O48         O  0.07632159  0.04332054  0.29855173    -0.87300
C49         C  0.04192005  0.48095178  0.39572483     1.13300
C50         C  0.07287242  0.06556967  0.29113182     1.08000
O51         O  0.45440712  0.44442406  0.40376142    -0.78900
O52         O  0.01735151  0.00907567  0.33738305    -1.32600
O53         O  0.42881107  0.41671547  0.36538159    -0.98100
C54         C  0.48911746  0.39044018  0.29108167     1.06700
Mn55       Mn  0.06050730  0.01230604  0.33599394     1.48600
O56         O  0.46334729  0.38717136  0.29753753    -0.87300
Mn57       Mn  0.41204970  0.43526430  0.33780024     1.49600
O58         O  0.41397986  0.49959140  0.36609506    -0.91200
C59         C  0.48899526  0.03353749  0.27924941     1.19900
C60         C  0.39700147  0.47536981  0.38126510     1.12000
Mn61       Mn  0.48640595  0.47727499  0.30234848     1.81000
O62         O  0.04623890  0.47989617  0.36745309    -0.96300
Mn63       Mn  0.44973943  0.01528010  0.33348652     1.49300
C64         C  0.39650188  0.47291419  0.28991710     1.08500
Mn65       Mn  0.02742358  0.44422365  0.33928657     1.49900
C66         C  0.48666785  0.38981421  0.38312746     1.11400
O67         O  0.42726686  0.41766472  0.30632124    -1.02100
O68         O  0.07984661  0.04764976  0.36948696    -0.91800
C69         C  0.43151183  0.42258676  0.27806230     1.22700
O70         O  0.04572776  0.47676662  0.30785508    -1.02500
O71         O  0.05087918  0.06881794  0.37582579    -0.89900
O72         O  0.01212287  0.41298115  0.37667289    -0.89500
O73         O  0.39556477  0.45014488  0.37523926    -0.89500
Mn74       Mn  0.01978428  0.05173674  0.33849803     1.47900
O75         O  0.01761722  0.47935020  0.40426307    -0.78000
C76         C  0.43286321  0.41974648  0.39377325     1.15700
O77         O  0.48759675  0.00955620  0.26938178    -0.76700
O78         O  0.48273534  0.00810886  0.40436443    -0.76400
Mn79       Mn  0.44731278  0.40264020  0.33448099     1.51100
O80         O  0.01331815  0.40904394  0.30563488    -0.88700
O81         O  0.48274483  0.03562515  0.36634133    -0.96200
O82         O  0.46240847  0.38310857  0.36827490    -0.91300
C83         C  0.48091736  0.03052954  0.39504699     1.13500
C84         C  0.46993390  0.09262074  0.43210951     0.16200
C85         C  0.96729604  0.11837030  0.43638977    -0.32800
C86         C  0.46614993  0.12730564  0.46728665     0.20600
C87         C  0.46704657  0.11099291  0.49298674     0.02800
C88         C  0.46909586  0.08461427  0.48865685    -0.22500
C89         C  0.47080876  0.07589394  0.45745310     0.12000
S90         S  0.97342779  0.08002269  0.39632978    -0.06200
C91         C  0.47648133  0.05169370  0.41505285    -0.09700
C92         C  0.47445118  0.05191724  0.44776340    -0.26300
S93         S  0.46751317  0.12719671  0.52861973    -0.03500
C94         C  0.46679959  0.15620907  0.00837442    -0.16900
C95         C  0.96570429  0.15299838  0.47590119    -0.14900
H96         H  0.96708778  0.13145495  0.41639423     0.20500
H97         H  0.47022803  0.07205784  0.50865803     0.16500
H98         H  0.47599795  0.03598066  0.46337105     0.19000
H99         H  0.96595426  0.16928548  0.45937289     0.12400
C100        C  0.49225625  0.34361554  0.45223456     0.16200
C101        C  0.00081188  0.33269503  0.47845325    -0.32800
C102        C  0.48444264  0.30122021  0.48418219     0.20600
C103        C  0.46068257  0.28168277  0.46462797     0.02800
C104        C  0.45155374  0.29270660  0.43916172    -0.22500
C105        C  0.46787575  0.32400597  0.43342850     0.12000
S106        S  0.01074140  0.38044668  0.43928465    -0.06200
C107        C  0.48505646  0.36920678  0.40849725    -0.09700
C108        C  0.46332868  0.33859977  0.40873380    -0.26300
S109        S  0.44560371  0.24415663  0.47325774    -0.03500
C110        C  0.47113265  0.25460687  0.00396662    -0.16900
C111        C  0.49021023  0.28578592  0.00727367    -0.14900
H112        H  0.01992869  0.34788331  0.49312401     0.20500
H113        H  0.43311090  0.27738611  0.42381611     0.16500
H114        H  0.44579625  0.32734744  0.39098229     0.19000
H115        H  0.00826783  0.29645546  0.02459684     0.12400
C116        C  0.50557933  0.10826513  0.24104328     0.16200
C117        C  0.51123137  0.13778973  0.23606295    -0.32800
C118        C  0.50809512  0.14568350  0.20529934     0.20600
C119        C  0.00035926  0.12531489  0.18030858     0.02800
C120        C  0.99529063  0.09575831  0.18520565    -0.22500
C121        C  0.99782233  0.08758519  0.21630824     0.12000
S122        S  0.50570600  0.09415188  0.27718675    -0.06200
C123        C  0.49493032  0.05962273  0.25931585    -0.09700
C124        C  0.99194993  0.05943874  0.22664649    -0.26300
S125        S  0.99589261  0.13907503  0.14514204    -0.03500
C126        C  0.50408702  0.17235492  0.16459721    -0.16900
C127        C  0.51048790  0.17265167  0.19646085    -0.14900
H128        H  0.51679617  0.15362613  0.25559933     0.20500
H129        H  0.98869065  0.07958855  0.16585908     0.16500
H130        H  0.98495728  0.03972699  0.21156628     0.19000
H131        H  0.51556458  0.19122875  0.21263351     0.12400
C132        C  0.48295469  0.33685421  0.22341300     0.16200
C133        C  0.47397017  0.31651178  0.19772848    -0.32800
C134        C  0.49042085  0.30160814  0.19202708     0.20600
C135        C  0.51460503  0.30662983  0.21114136     0.02800
C136        C  0.52413433  0.32762074  0.23615930    -0.22500
C137        C  0.50779450  0.34257403  0.24178111     0.12000
S138        S  0.46452470  0.35528494  0.23605080    -0.06200
C139        C  0.49091876  0.37118435  0.26604372    -0.09700
C140        C  0.51277766  0.36264380  0.26592153    -0.26300
S141        S  0.52985215  0.28432051  0.20232898    -0.03500
C142        C  0.50385443  0.26850953  0.17209983    -0.16900
C143        C  0.48447078  0.28005455  0.16913416    -0.14900
H144        H  0.45454207  0.31189319  0.18336928     0.20500
H145        H  0.54295504  0.33150652  0.25115309     0.16500
H146        H  0.53060050  0.36973016  0.28341346     0.19000
H147        H  0.46622077  0.27215730  0.15204768     0.12400
C148        C  0.31837617  0.00400804  0.46598707     0.16200
C149        C  0.33950974  0.01363837  0.44139081    -0.32800
C150        C  0.35209178  0.49546683  0.43369283     0.20600
C151        C  0.34415893  0.46888462  0.44980464     0.02800
C152        C  0.32365250  0.45970235  0.47516584    -0.22500
C153        C  0.31092370  0.47788035  0.48284255     0.12000
S154        S  0.29819421  0.02117054  0.47629143    -0.06200
C155        C  0.27980585  0.49328732  0.00402955    -0.09700
C156        C  0.28908249  0.47191182  0.00522571    -0.26300
S157        S  0.36019584  0.44885244  0.43479575    -0.03500
C158        C  0.37785338  0.47676747  0.40670100    -0.16900
C159        C  0.37167707  0.00031717  0.40930396    -0.14900
H160        H  0.34510889  0.03388225  0.42808072     0.20500
H161        H  0.31715981  0.43882854  0.48765956     0.16500
H162        H  0.27908610  0.45212663  0.02027025     0.19000
H163        H  0.38027483  0.01951690  0.39349632     0.12400
C164        C  0.09593110  0.48602570  0.46223572     0.16200
C165        C  0.11052158  0.48640738  0.49062980    -0.32800
C166        C  0.13939485  0.48925926  0.48842176     0.20600
C167        C  0.15300644  0.49193010  0.45928358     0.02800
C168        C  0.13856425  0.49159513  0.43118448    -0.22500
C169        C  0.10983714  0.48845094  0.43336596     0.12000
S170        S  0.06062280  0.48214190  0.45905203    -0.06200
C171        C  0.06494407  0.48355733  0.41848898    -0.09700
C172        C  0.09230192  0.48703079  0.40839698    -0.26300
S173        S  0.18749514  0.49464202  0.46084601    -0.03500
C174        C  0.18390665  0.49177930  0.00133391    -0.16900
C175        C  0.15717506  0.48918904  0.01289124    -0.14900
H176        H  0.09978807  0.48429639  0.01329101     0.21200
H177        H  0.14916401  0.49336351  0.40847955     0.16500
H178        H  0.09902091  0.48831291  0.38388067     0.19000
H179        H  0.15090232  0.48686136  0.03761413     0.12400
C180        C  0.31886844  0.48750714  0.19083858     0.16200
C181        C  0.34807206  0.49965034  0.20367624    -0.32800
C182        C  0.35227539  0.48311748  0.22759875     0.20600
C183        C  0.32862654  0.45540280  0.23758656     0.02800
C184        C  0.29948479  0.44347316  0.22503784    -0.22500
C185        C  0.29510960  0.46034350  0.20184200     0.12000
S186        S  0.30865214  0.50430753  0.16232408    -0.06200
C187        C  0.27196985  0.47493432  0.16627516    -0.09700
C188        C  0.26806665  0.45321923  0.18811966    -0.26300
S189        S  0.33794760  0.43869311  0.26670788    -0.03500
C190        C  0.37395028  0.46975968  0.26635998    -0.16900
C191        C  0.37845681  0.49166495  0.24427571    -0.14900
H192        H  0.36652275  0.52124096  0.19578906     0.20500
H193        H  0.28087926  0.42222479  0.23345311     0.16500
H194        H  0.24651736  0.43346885  0.19386265     0.19000
H195        H  0.39948950  0.51281365  0.24101016     0.12400
C196        C  0.14656816  0.47560727  0.21469148     0.16200
C197        C  0.13387572  0.47846899  0.24287548    -0.32800
C198        C  0.10540083  0.47604595  0.24127447     0.20600
C199        C  0.09000575  0.47100828  0.21287044     0.02800
C200        C  0.10284316  0.46822717  0.18441490    -0.22500
C201        C  0.13159421  0.47073086  0.18600986     0.12000
S202        S  0.18084488  0.47782352  0.21234152    -0.06200
C203        C  0.17557845  0.47242812  0.17206780    -0.09700
C204        C  0.14830144  0.46901268  0.16122063    -0.26300
S205        S  0.05546255  0.46878211  0.21659928    -0.03500
C206        C  0.06214286  0.47465015  0.25676582    -0.16900
C207        C  0.08963127  0.47812248  0.26636232    -0.14900
H208        H  0.14572423  0.48239429  0.26519017     0.20500
H209        H  0.09101161  0.46433988  0.16210994     0.16500
H210        H  0.14114650  0.46550261  0.13670937     0.19000
H211        H  0.09773117  0.48202282  0.29057048     0.12400
C212        C  0.37482649  0.34602682  0.43328988     0.16200
C213        C  0.35104911  0.31663605  0.43880110    -0.32800
C214        C  0.33968102  0.30957037  0.46951112     0.20600
C215        C  0.35187298  0.33057745  0.49402582     0.02800
C216        C  0.37626081  0.36004296  0.48860888    -0.22500
C217        C  0.38727991  0.36739343  0.45749956     0.12000
S218        S  0.38944039  0.35912472  0.39699383    -0.06200
C219        C  0.41271531  0.39411559  0.41408641    -0.09700
C220        C  0.40947447  0.39526465  0.44660577    -0.26300
S221        S  0.33318652  0.31768596  0.02915009    -0.03500
C222        C  0.30841270  0.28404457  0.01015995    -0.16900
C223        C  0.31501021  0.28291171  0.47860782    -0.14900
H224        H  0.34106558  0.30027794  0.41965440     0.20500
H225        H  0.38549384  0.37674517  0.50751073     0.16500
H226        H  0.42184457  0.41543216  0.46115569     0.19000
H227        H  0.30173058  0.26398564  0.46274698     0.12400
C228        C  0.12075715  0.12186371  0.44960326     0.16200
C229        C  0.13202350  0.14235286  0.47522750    -0.32800
C230        C  0.16349431  0.15799966  0.48041446     0.20600
C231        C  0.18280038  0.15369416  0.46068713     0.02800
C232        C  0.17149951  0.13274290  0.43566908    -0.22500
C233        C  0.14014168  0.11688361  0.43075322     0.12000
S234        S  0.08364546  0.10199338  0.43781981    -0.06200
C235        C  0.09450809  0.08647296  0.40767903    -0.09700
C236        C  0.12517358  0.09625940  0.40707442    -0.26300
S237        S  0.22030223  0.17628578  0.96918445    -0.03500
C238        C  0.21003109  0.19108888  0.00037944    -0.16900
C239        C  0.17905013  0.17921488  0.50367658    -0.14900
H240        H  0.11701503  0.14627435  0.49012175     0.20500
H241        H  0.18656996  0.12930288  0.42034961     0.16500
H242        H  0.13613009  0.08953706  0.38941263     0.19000
H243        H  0.16860904  0.18637592  0.52148699     0.12400
C244        C  0.32232757  0.31850638  0.21518604     0.16200
C245        C  0.33680927  0.33322520  0.24317012    -0.32800
C246        C  0.36539694  0.35905858  0.24080470     0.20600
C247        C  0.37936285  0.36997718  0.21190392     0.02800
C248        C  0.36489236  0.35494772  0.18362940    -0.22500
C249        C  0.33594302  0.32894629  0.18601229     0.12000
S250        S  0.28726031  0.28725568  0.21374492    -0.06200
C251        C  0.29049138  0.28778144  0.17324657    -0.09700
C252        C  0.31768078  0.31118604  0.16161905    -0.26300
S253        S  0.41414508  0.40235199  0.21487702    -0.03500
C254        C  0.40933829  0.40072339  0.25537760    -0.16900
C255        C  0.38239165  0.37639670  0.26560815    -0.14900
H256        H  0.32608331  0.32502565  0.26590093     0.20500
H257        H  0.37553408  0.36325660  0.16089834     0.16500
H258        H  0.32365962  0.31502462  0.13682822     0.19000
H259        H  0.37543203  0.37169598  0.29010687     0.12400
C260        C  0.12248986  0.11045893  0.22069225     0.16200
C261        C  0.14121494  0.12086197  0.19391544    -0.32800
C262        C  0.15634303  0.15219162  0.18781942     0.20600
C263        C  0.15276348  0.17213835  0.20746543     0.02800
C264        C  0.13324228  0.16162940  0.23347597    -0.22500
C265        C  0.11834592  0.13044300  0.23965203     0.12000
S266        S  0.10464618  0.07391499  0.23421422    -0.06200
C267        C  0.09130672  0.08578704  0.26546547    -0.09700
C268        C  0.10005703  0.11633035  0.26500675    -0.26300
S269        S  0.17579979  0.20949468  0.19874717    -0.03500
C270        C  0.19023078  0.19831769  0.16796670    -0.16900
C271        C  0.17750470  0.16713075  0.16460293    -0.14900
H272        H  0.14478625  0.10540792  0.17923202     0.20500
H273        H  0.13075295  0.17726176  0.24901553     0.16500
H274        H  0.09430006  0.12784578  0.28300776     0.19000
H275        H  0.18487887  0.15616188  0.14760861     0.12400
C276        C  0.21744768  0.22061756  0.65102775     0.80500
N277        N  0.24003646  0.24344023  0.66789663    -0.77800
C278        C  0.26589155  0.26437067  0.65370061     0.82900
N279        N  0.26889975  0.26274999  0.62200134    -0.77700
C280        C  0.24629787  0.24012815  0.60463640     0.83000
N281        N  0.22063721  0.21873391  0.61926568    -0.79500
C282        C  0.23295723  0.21542018  0.52052115     0.80500
N283        N  0.22835663  0.21658713  0.55207410    -0.77800
C284        C  0.25022629  0.23901371  0.57029321     0.82900
N285        N  0.27627034  0.26062909  0.55668044    -0.77700
C286        C  0.28091585  0.25967505  0.52522052     0.83000
N287        N  0.25930633  0.23681066  0.50735484    -0.79500
C288        C  0.24650744  0.47445223  0.64985579     0.80500
N289        N  0.22265316  0.47164580  0.66662449    -0.77800
C290        C  0.19945933  0.47264470  0.65209111     0.82900
N291        N  0.20003912  0.47603527  0.62007188    -0.77700
C292        C  0.22397992  0.47860803  0.60304728     0.83000
N293        N  0.24726374  0.47823638  0.61818865    -0.79500
C294        C  0.25356597  0.49050807  0.52142225     0.80500
N295        N  0.23219279  0.49341608  0.50554755    -0.77800
C296        C  0.20739020  0.49060596  0.52053293     0.82900
N297        N  0.20429723  0.48550003  0.55225905    -0.77700
C298        C  0.22596025  0.48296250  0.56856002     0.83000
N299        N  0.25033375  0.48508849  0.55292182    -0.79500
C300        C  0.50126144  0.24322483  0.65275534     0.80500
N301        N  0.49380768  0.24089877  0.62157481    -0.77800
C302        C  0.49089988  0.21704618  0.60413084     0.82900
N303        N  0.49470687  0.19521622  0.61817194    -0.77700
C304        C  0.50196221  0.19724176  0.64925475     0.83000
N305        N  0.50545038  0.22148557  0.66641115    -0.79500
C306        C  0.47366564  0.23154011  0.52265128     0.80500
N307        N  0.48129789  0.23590436  0.55395774    -0.77800
C308        C  0.48301944  0.21382089  0.57037540     0.82900
N309        N  0.47766703  0.18798940  0.55535296    -0.77700
C310        C  0.47036430  0.18358653  0.52434361     0.83000
N311        N  0.46822572  0.20534299  0.50807264    -0.79500
O312        O  0.41938195  0.99892467  0.79540940    -0.87900
C313        C  0.07361136  0.06622236  0.88311879     1.12100
O314        O  0.45402813  0.47624623  0.83635234    -1.35700
O315        O  0.05445490  0.07161667  0.80512193    -0.89400
O316        O  0.39121411  0.44918146  0.80477818    -0.90000
O317        O  0.45519159  0.44593264  0.76953524    -0.78900
O318        O  0.48671167  0.03582842  0.80752606    -1.01000
C319        C  0.04077140  0.47576628  0.77948167     1.22200
O320        O  0.48681222  0.44609141  0.83692849    -1.35900
Mn321      Mn  0.48547607  0.47733492  0.87160746     1.82100
O322        O  0.01780731  0.47662140  0.77061743    -0.77900
O323        O  0.07631885  0.04331364  0.79857208    -0.87300
C324        C  0.04192483  0.48095670  0.89571698     1.13300
C325        C  0.07287000  0.06556275  0.79115094     1.08000
O326        O  0.45441772  0.44444404  0.90375531    -0.78900
O327        O  0.01734456  0.00906414  0.83739796    -1.32600
O328        O  0.42881990  0.41673869  0.86537565    -0.98100
C329        C  0.48911352  0.39044507  0.79108016     1.06700
Mn330      Mn  0.06050100  0.01229590  0.83601113     1.48600
O331        O  0.46334439  0.38717817  0.79753710    -0.87300
Mn332      Mn  0.41205776  0.43528484  0.83779361     1.49600
O333        O  0.41399433  0.49961813  0.86608311    -0.91200
C334        C  0.48899461  0.03353066  0.77925376     1.19900
C335        C  0.39701596  0.47539839  0.88125587     1.12000
Mn336      Mn  0.48641129  0.47728516  0.80233748     1.81000
O337        O  0.04624086  0.47989915  0.86744492    -0.96300
Mn338      Mn  0.44973404  0.01526965  0.83348699     1.49300
C339        C  0.39651217  0.47293339  0.78990752     1.08500
Mn340      Mn  0.02742056  0.44422562  0.83928023     1.49900
C341        C  0.48667199  0.38982619  0.88312030     1.11400
O342        O  0.42726983  0.41767814  0.80631634    -1.02100
O343        O  0.07983788  0.04763757  0.86950515    -0.91800
C344        C  0.43151366  0.42259599  0.77805666     1.22700
O345        O  0.04572440  0.47676716  0.80784698    -1.02500
O346        O  0.05086966  0.06880477  0.87584505    -0.89900
O347        O  0.01212115  0.41298479  0.87666769    -0.89500
O348        O  0.39557726  0.45017211  0.87523177    -0.89500
Mn349      Mn  0.01977730  0.05172488  0.83851431     1.47900
O350        O  0.01762388  0.47935924  0.90425638    -0.78000
C351        C  0.43286971  0.41976914  0.89376723     1.15700
O352        O  0.48759814  0.00955074  0.76938503    -0.76700
O353        O  0.48272113  0.00809321  0.90436704    -0.76400
Mn354      Mn  0.44731556  0.40265478  0.83447775     1.51100
O355        O  0.01330897  0.40904392  0.80563112    -0.88700
O356        O  0.48273609  0.03561275  0.86634469    -0.96200
O357        O  0.46241141  0.38312389  0.86827201    -0.91300
C358        C  0.48090105  0.03051257  0.89504957     1.13500
C359        C  0.46988081  0.09258159  0.93210781     0.16200
C360        C  0.96726582  0.11834528  0.93639060    -0.32800
C361        C  0.46610369  0.12727158  0.96728279     0.20600
C362        C  0.46701224  0.11096682  0.99298443     0.02800
C363        C  0.46906418  0.08458951  0.98865636    -0.22500
C364        C  0.47076917  0.07586344  0.95745289     0.12000
S365        S  0.97340813  0.08000087  0.89633683    -0.06200
C366        C  0.47644783  0.05166625  0.91505386    -0.09700
C367        C  0.47442199  0.05189284  0.94776459    -0.26300
S368        S  0.46749559  0.12718198  0.02861552    -0.03500
C369        C  0.46682382  0.15622883  0.50838191    -0.16900
C370        C  0.96567687  0.15297791  0.97589718    -0.14900
H371        H  0.96706381  0.13143151  0.91639370     0.20500
H372        H  0.47020814  0.07204056  0.00865854     0.16500
H373        H  0.47598318  0.03596522  0.96337361     0.19000
H374        H  0.96593399  0.16926683  0.95936670     0.12400
C375        C  0.49225438  0.34361677  0.95221955     0.16200
C376        C  0.00079563  0.33269334  0.97845058    -0.32800
C377        C  0.48444543  0.30121649  0.98415624     0.20600
C378        C  0.46070890  0.28167706  0.96457848     0.02800
C379        C  0.45158943  0.29270099  0.93910468    -0.22500
C380        C  0.46789598  0.32400400  0.93339017     0.12000
S381        S  0.01072178  0.38045176  0.93929411    -0.06200
C382        C  0.48506137  0.36921391  0.90848366    -0.09700
C383        C  0.46335244  0.33860057  0.90869596    -0.26300
S384        S  0.44564306  0.24415010  0.97319486    -0.03500
C385        C  0.47112083  0.25461209  0.50400258    -0.16900
C386        C  0.49021583  0.28578980  0.50729245    -0.14900
H387        H  0.01989820  0.34788367  0.99313673     0.20500
H388        H  0.43316420  0.27737905  0.92374183     0.16500
H389        H  0.44583629  0.32734723  0.89092876     0.19000
H390        H  0.00829355  0.29645859  0.52459349     0.12400
C391        C  0.50558172  0.10826039  0.74105389     0.16200
C392        C  0.51123131  0.13778415  0.73607591    -0.32800
C393        C  0.50810714  0.14568287  0.70531083     0.20600
C394        C  0.00037198  0.12531297  0.68032381     0.02800
C395        C  0.99531172  0.09575911  0.68521945    -0.22500
C396        C  0.99782878  0.08758102  0.71632453     0.12000
S397        S  0.50569332  0.09414115  0.77719785    -0.06200
C398        C  0.49493142  0.05961718  0.75932236    -0.09700
C399        C  0.99196079  0.05943549  0.72666106    -0.26300
S400        S  0.99591756  0.13907707  0.64515381    -0.03500
C401        C  0.50410586  0.17235741  0.66460855    -0.16900
C402        C  0.51049631  0.17264952  0.69647430    -0.14900
H403        H  0.51678403  0.15361575  0.75561494     0.20500
H404        H  0.98872836  0.07959485  0.66586978     0.16500
H405        H  0.98498467  0.03972877  0.71157780     0.19000
H406        H  0.51556078  0.19122125  0.71265013     0.12400
C407        C  0.48294029  0.33684047  0.72342914     0.16200
C408        C  0.47395334  0.31649248  0.69774971    -0.32800
C409        C  0.49040493  0.30158943  0.69205160     0.20600
C410        C  0.51459113  0.30661562  0.71116490     0.02800
C411        C  0.52412200  0.32761103  0.73617841    -0.22500
C412        C  0.50778228  0.34256496  0.74179587     0.12000
S413        S  0.46451236  0.35527506  0.73606043    -0.06200
C414        C  0.49091092  0.37118287  0.76604802    -0.09700
C415        C  0.51276913  0.36264161  0.76592966    -0.26300
S416        S  0.52984193  0.28430940  0.70235435    -0.03500
C417        C  0.50384360  0.26849474  0.67212649    -0.16900
C418        C  0.48445613  0.28003500  0.66916059    -0.14900
H419        H  0.45452430  0.31187098  0.68339092     0.20500
H420        H  0.54294491  0.33150126  0.75117075     0.16500
H421        H  0.53059418  0.36973278  0.78341957     0.19000
H422        H  0.46620636  0.27213571  0.65207380     0.12400
C423        C  0.31839002  0.00401449  0.96599730     0.16200
C424        C  0.33953106  0.01364750  0.94140790    -0.32800
C425        C  0.35211469  0.49550364  0.93368947     0.20600
C426        C  0.34418282  0.46892236  0.94980262     0.02800
C427        C  0.32367942  0.45974240  0.97516655    -0.22500
C428        C  0.31095186  0.47792126  0.98284471     0.12000
S429        S  0.29822404  0.02119167  0.97631247    -0.06200
C430        C  0.27977792  0.49324673  0.50402543    -0.09700
C431        C  0.28905332  0.47187042  0.50522209    -0.26300
S432        S  0.36021614  0.44888754  0.93479161    -0.03500
C433        C  0.37787105  0.47679981  0.90669369    -0.16900
C434        C  0.37168549  0.00031505  0.90931236    -0.14900
H435        H  0.34514780  0.03390310  0.92811107     0.20500
H436        H  0.31718735  0.43886905  0.98766088     0.16500
H437        H  0.27905637  0.45208527  0.52026674     0.19000
H438        H  0.38029992  0.01952544  0.89351758     0.12400
C439        C  0.09594492  0.48604146  0.96222628     0.16200
C440        C  0.11054246  0.48643886  0.99062115    -0.32800
C441        C  0.13940850  0.48927328  0.98841253     0.20600
C442        C  0.15300648  0.49191192  0.95927244     0.02800
C443        C  0.13855677  0.49156025  0.93117226    -0.22500
C444        C  0.10983693  0.48843441  0.93335471     0.12000
S445        S  0.06064471  0.48217820  0.95904443    -0.06200
C446        C  0.06494990  0.48355954  0.91847978    -0.09700
C447        C  0.09229710  0.48700631  0.90838599    -0.26300
S448        S  0.18749011  0.49461147  0.96083575    -0.03500
C449        C  0.18389529  0.49177098  0.50134078    -0.16900
C450        C  0.15715547  0.48916061  0.51289838    -0.14900
H451        H  0.09975610  0.48423853  0.51329801     0.21200
H452        H  0.14914624  0.49330454  0.90846612     0.16500
H453        H  0.09900603  0.48826564  0.88386861     0.19000
H454        H  0.15087192  0.48680624  0.53761903     0.12400
C455        C  0.31886887  0.48751665  0.69083398     0.16200
C456        C  0.34807483  0.49966061  0.70366604    -0.32800
C457        C  0.35228064  0.48313188  0.72759155     0.20600
C458        C  0.32863177  0.45542082  0.73758738     0.02800
C459        C  0.29948812  0.44349095  0.72504466    -0.22500
C460        C  0.29511075  0.46035689  0.70184588     0.12000
S461        S  0.30864899  0.50431056  0.66231555    -0.06200
C462        C  0.27196678  0.47493965  0.66627689    -0.09700
C463        C  0.26806602  0.45323045  0.68812738    -0.26300
S464        S  0.33795493  0.43871488  0.76671014    -0.03500
C465        C  0.37395905  0.46977823  0.76635252    -0.16900
C466        C  0.37846465  0.49168001  0.74426401    -0.14900
H467        H  0.36652532  0.52124814  0.69577213     0.20500
H468        H  0.28088306  0.42224552  0.73346613     0.16500
H469        H  0.24651731  0.43348206  0.69387632     0.19000
H470        H  0.39949821  0.51282636  0.74099252     0.12400
C471        C  0.14657914  0.47564539  0.71468252     0.16200
C472        C  0.13389586  0.47852976  0.74286218    -0.32800
C473        C  0.10540859  0.47607776  0.74126363     0.20600
C474        C  0.08999341  0.47099251  0.71286598     0.02800
C475        C  0.10282207  0.46818967  0.68441422    -0.22500
C476        C  0.13158510  0.47072100  0.68600691     0.12000
S477        S  0.18086625  0.47788544  0.71233211    -0.06200
C478        C  0.17557666  0.47243490  0.67206605    -0.09700
C479        C  0.14828534  0.46898519  0.66122114    -0.26300
S480        S  0.05543655  0.46873518  0.71659803    -0.03500
C481        C  0.06213828  0.47465268  0.75675746    -0.16900
C482        C  0.08964358  0.47816494  0.76634928    -0.14900
H483        H  0.14575945  0.48249136  0.76517206     0.20500
H484        H  0.09097447  0.46426388  0.66211430     0.16500
H485        H  0.14111501  0.46543729  0.63671439     0.19000
H486        H  0.09775767  0.48209918  0.79055269     0.12400
C487        C  0.37480704  0.34605686  0.93327370     0.16200
C488        C  0.35102217  0.31666954  0.93878057    -0.32800
C489        C  0.33966533  0.30959697  0.96949381     0.20600
C490        C  0.35187309  0.33059446  0.99401520     0.02800
C491        C  0.37626779  0.36005729  0.98860184    -0.22500
C492        C  0.38727755  0.36741439  0.95748967     0.12000
S493        S  0.38941492  0.35915967  0.89697754    -0.06200
C494        C  0.41271229  0.39414077  0.91407811    -0.09700
C495        C  0.40948130  0.39528331  0.94660004    -0.26300
S496        S  0.33317422  0.31767762  0.52915550    -0.03500
C497        C  0.30841519  0.28402665  0.51017222    -0.16900
C498        C  0.31499358  0.28293922  0.97858927    -0.14900
H499        H  0.34102672  0.30031858  0.91962942     0.20500
H500        H  0.38551476  0.37675204  0.00750950     0.16500
H501        H  0.42186696  0.41544428  0.96115543     0.19000
H502        H  0.30170397  0.26402029  0.96272395     0.12400
C503        C  0.12075142  0.12183668  0.94962912     0.16200
C504        C  0.13201706  0.14230806  0.97526850    -0.32800
C505        C  0.16349272  0.15798736  0.98042592     0.20600
C506        C  0.18280292  0.15372996  0.96065617     0.02800
C507        C  0.17150418  0.13279676  0.93562262    -0.22500
C508        C  0.14014264  0.11690459  0.93073647     0.12000
S509        S  0.08363141  0.10193216  0.93787737    -0.06200
C510        C  0.09450169  0.08646180  0.90769351    -0.09700
C511        C  0.12517501  0.09628945  0.90705093    -0.26300
S512        S  0.22029842  0.17621846  0.46924360    -0.03500
C513        C  0.21002984  0.19107265  0.50039344    -0.16900
C514        C  0.17904856  0.17919144  0.00369755    -0.14900
H515        H  0.11700385  0.14619161  0.99019677     0.20500
H516        H  0.18657827  0.12939400  0.92027047     0.16500
H517        H  0.13613521  0.08960170  0.88935907     0.19000
H518        H  0.16860419  0.18631652  0.02154015     0.12400
C519        C  0.32233642  0.31849359  0.71519191     0.16200
C520        C  0.33682450  0.33320919  0.74317505    -0.32800
C521        C  0.36540621  0.35905063  0.74080606     0.20600
C522        C  0.37936108  0.36997910  0.71190260     0.02800
C523        C  0.36488489  0.35495224  0.68362898    -0.22500
C524        C  0.33594090  0.32894360  0.68601550     0.12000
S525        S  0.28727248  0.28723705  0.71375485    -0.06200
C526        C  0.29048991  0.28777427  0.67325469    -0.09700
C527        C  0.31767303  0.31118638  0.66162373    -0.26300
S528        S  0.41413613  0.40236388  0.71487163    -0.03500
C529        C  0.40934082  0.40072726  0.75537415    -0.16900
C530        C  0.38240352  0.37638966  0.76560812    -0.14900
H531        H  0.32610670  0.32500234  0.76590800     0.20500
H532        H  0.37551757  0.36326946  0.66089574     0.16500
H533        H  0.32364315  0.31503312  0.63683126     0.19000
H534        H  0.37545145  0.37168252  0.79010841     0.12400
C535        C  0.12250704  0.11045186  0.72072080     0.16200
C536        C  0.14124428  0.12085546  0.69395300    -0.32800
C537        C  0.15635578  0.15218198  0.68784257     0.20600
C538        C  0.15275012  0.17212574  0.70746677     0.02800
C539        C  0.13321709  0.16161524  0.73346848    -0.22500
C540        C  0.11833614  0.13043142  0.73965855     0.12000
S541        S  0.10467793  0.07391318  0.73425685    -0.06200
C542        C  0.09130700  0.08577985  0.76548449    -0.09700
C543        C  0.10003760  0.11631829  0.76500775    -0.26300
S544        S  0.17576965  0.20948227  0.69873410    -0.03500
C545        C  0.19022698  0.19830808  0.66797613    -0.16900
C546        C  0.17752290  0.16712214  0.66463106    -0.14900
H547        H  0.14483602  0.10540481  0.67928700     0.20500
H548        H  0.13070654  0.17724521  0.74899101     0.16500
H549        H  0.09426011  0.12783082  0.78299282     0.19000
H550        H  0.18491544  0.15615633  0.64765333     0.12400
C551        C  0.21745283  0.72061800  0.15101690     0.80500
N552        N  0.24003447  0.74344822  0.16788561    -0.77800
C553        C  0.26589128  0.76437880  0.15369182     0.82900
N554        N  0.26890816  0.76275039  0.12199501    -0.77700
C555        C  0.24631331  0.74012139  0.10463021     0.83000
N556        N  0.22065118  0.71872739  0.11925750    -0.79500
C557        C  0.23298073  0.71540937  0.02051567     0.80500
N558        N  0.22837912  0.71657537  0.05206859    -0.77800
C559        C  0.25024777  0.73900257  0.07028849     0.82900
N560        N  0.27629227  0.76061913  0.05667661    -0.77700
C561        C  0.28093823  0.75966571  0.02521657     0.83000
N562        N  0.25932909  0.73680178  0.00735080    -0.79500
C563        C  0.24650000  0.97442042  0.14984066     0.80500
N564        N  0.22264027  0.97160121  0.16660926    -0.77800
C565        C  0.19944766  0.97260513  0.15207902     0.82900
N566        N  0.20003430  0.97601365  0.12006172    -0.77700
C567        C  0.22398021  0.97859861  0.10303646     0.83000
N568        N  0.24726246  0.97822193  0.11817586    -0.79500
C569        C  0.25357555  0.99052437  0.02141234     0.80500
N570        N  0.23220626  0.99344196  0.00554120    -0.77800
C571        C  0.20740430  0.99063206  0.02052808     0.82900
N572        N  0.20430768  0.98551574  0.05225253    -0.77700
C573        C  0.22596657  0.98296843  0.06855052     0.83000
N574        N  0.25033953  0.98509468  0.05291030    -0.79500
C575        C  0.50128651  0.74322908  0.15274886     0.80500
N576        N  0.49383389  0.74090454  0.12156790    -0.77800
C577        C  0.49092673  0.71705271  0.10412274     0.82900
N578        N  0.49473286  0.69522167  0.11816347    -0.77700
C579        C  0.50198732  0.69724583  0.14924664     0.83000
N580        N  0.50547468  0.72148894  0.16640372    -0.79500
C581        C  0.47367802  0.73153806  0.02264360     0.80500
N582        N  0.48132079  0.73590865  0.05394782    -0.77800
C583        C  0.48304019  0.71382482  0.07036817     0.82900
N584        N  0.47767464  0.68798692  0.05535061    -0.77700
C585        C  0.47035973  0.68357687  0.02434454     0.83000
N586        N  0.46822376  0.70533354  0.00807119    -0.79500
O587        O  0.41937253  0.49891829  0.29542301    -0.87900
C588        C  0.07362599  0.56622371  0.38311612     1.12100
O589        O  0.45403071  0.97624252  0.33635141    -1.35700
O590        O  0.05446460  0.57162569  0.30512237    -0.89400
O591        O  0.39121606  0.94917686  0.30477910    -0.90000
O592        O  0.45519582  0.94593441  0.26953153    -0.78900
O593        O  0.48670205  0.53582590  0.30753515    -1.01000
C594        C  0.04077996  0.97576548  0.27948253     1.22200
O595        O  0.48681546  0.94608861  0.33692421    -1.35900
Mn596      Mn  0.48547882  0.97733108  0.37160601     1.82100
O597        O  0.01781786  0.97662366  0.27061601    -0.77900
O598        O  0.07632218  0.54331758  0.29856592    -0.87300
C599        C  0.04192435  0.98096602  0.39571794     1.13300
C600        C  0.07287607  0.56556906  0.29114735     1.08000
O601        O  0.45442113  0.94443719  0.40375180    -0.78900
O602        O  0.01735155  0.50907128  0.33739639    -1.32600
O603        O  0.42882478  0.91673246  0.36537061    -0.98100
C604        C  0.48911936  0.89044207  0.29107354     1.06700
Mn605      Mn  0.06050550  0.51229815  0.33600403     1.48600
O606        O  0.46335014  0.88717690  0.29752680    -0.87300
Mn607      Mn  0.41206149  0.93527938  0.33779113     1.49600
O608        O  0.41399384  0.99960794  0.36608417    -0.91200
C609        C  0.48898567  0.53352686  0.27926283     1.19900
C610        C  0.39701465  0.97538638  0.38125429     1.12000
Mn611      Mn  0.48641458  0.97728516  0.30233559     1.81000
O612        O  0.04624272  0.97990754  0.36744659    -0.96300
Mn613      Mn  0.44972523  0.51526549  0.33349831     1.49300
C614        C  0.39651210  0.97292830  0.28990878     1.08500
Mn615      Mn  0.02742977  0.94423223  0.33928402     1.49900
C616        C  0.48667478  0.88982016  0.38311393     1.11400
O617        O  0.42727430  0.91767647  0.30631090    -1.02100
O618        O  0.07984872  0.54763809  0.36949840    -0.91800
C619        C  0.43151728  0.92259772  0.27805163     1.22700
O620        O  0.04573342  0.97677139  0.30784839    -1.02500
O621        O  0.05088503  0.56880941  0.37584682    -0.89900
O622        O  0.01212995  0.91299262  0.37667284    -0.89500
O623        O  0.39557932  0.95016177  0.37523067    -0.89500
Mn624      Mn  0.01978885  0.55173416  0.33851756     1.47900
O625        O  0.01762015  0.97936258  0.40425472    -0.78000
C626        C  0.43287544  0.91976119  0.39376234     1.15700
O627        O  0.48758901  0.50954632  0.26939548    -0.76700
O628        O  0.48271483  0.50809183  0.40437772    -0.76400
Mn629      Mn  0.44732033  0.90265109  0.33446996     1.51100
O630        O  0.01332650  0.90905012  0.30563690    -0.88700
O631        O  0.48272640  0.53560931  0.36635527    -0.96200
O632        O  0.46241532  0.88311740  0.36826293    -0.91300
C633        C  0.48089219  0.53050978  0.39506024     1.13500
C634        C  0.46986142  0.59257327  0.43211773     0.16200
C635        C  0.96730306  0.61836978  0.43639564    -0.32800
C636        C  0.46607968  0.62726137  0.46729207     0.20600
C637        C  0.46699640  0.61096132  0.49299408     0.02800
C638        C  0.46905491  0.58458760  0.48866668    -0.22500
C639        C  0.47075778  0.57585993  0.45746335     0.12000
S640        S  0.97345609  0.58003095  0.39634386    -0.06200
C641        C  0.47643651  0.55166227  0.41506442    -0.09700
C642        C  0.47441539  0.55189203  0.44777552    -0.26300
S643        S  0.46748252  0.62717851  0.52862449    -0.03500
C644        C  0.46680188  0.65620987  0.00838837    -0.16900
C645        C  0.96569175  0.65299052  0.47590176    -0.14900
H646        H  0.96711234  0.63146209  0.41639896     0.20500
H647        H  0.47020546  0.57204271  0.50866927     0.16500
H648        H  0.47598292  0.53596840  0.46338510     0.19000
H649        H  0.96595856  0.66928452  0.45937170     0.12400
C650        C  0.49225463  0.84361193  0.45221779     0.16200
C651        C  0.00082209  0.83269622  0.47844170    -0.32800
C652        C  0.48443840  0.80121306  0.48416189     0.20600
C653        C  0.46069208  0.78167528  0.46459341     0.02800
C654        C  0.45157172  0.79270002  0.43912076    -0.22500
C655        C  0.46788728  0.82400140  0.43339727     0.12000
S656        S  0.01075162  0.88045311  0.43928087    -0.06200
C657        C  0.48506267  0.86920832  0.40847950    -0.09700
C658        C  0.46334471  0.83859776  0.40870173    -0.26300
S659        S  0.44561717  0.74414849  0.47321774    -0.03500
C660        C  0.47113525  0.75460944  0.00398945    -0.16900
C661        C  0.49021974  0.78578861  0.00728619    -0.14900
H662        H  0.01993860  0.84788270  0.49311420     0.20500
H663        H  0.43313905  0.77737923  0.42376465     0.16500
H664        H  0.44582193  0.82734559  0.39094067     0.19000
H665        H  0.00829803  0.79645259  0.02459416     0.12400
C666        C  0.50558552  0.60825880  0.24105558     0.16200
C667        C  0.51124102  0.63778424  0.23607444    -0.32800
C668        C  0.50812159  0.64568322  0.20530775     0.20600
C669        C  0.00037604  0.62532236  0.18033106     0.02800
C670        C  0.99530914  0.59576681  0.18522844    -0.22500
C671        C  0.99783788  0.58759350  0.21633146     0.12000
S672        S  0.50569077  0.59413951  0.27720166    -0.06200
C673        C  0.49492560  0.55961351  0.25932916    -0.09700
C674        C  0.99196306  0.55944655  0.22666919    -0.26300
S675        S  0.99590840  0.63908008  0.14516379    -0.03500
C676        C  0.50412788  0.67235968  0.16460178    -0.16900
C677        C  0.51051593  0.67265154  0.19646838    -0.14900
H678        H  0.51679445  0.65361718  0.25561242     0.20500
H679        H  0.98871112  0.57959740  0.16588192     0.16500
H680        H  0.98497192  0.53973553  0.21158839     0.19000
H681        H  0.51558161  0.69122433  0.21264321     0.12400
C682        C  0.48295642  0.83684064  0.22342230     0.16200
C683        C  0.47397631  0.81649807  0.19773834    -0.32800
C684        C  0.49042520  0.80159112  0.19204618     0.20600
C685        C  0.51460188  0.80660784  0.21117011     0.02800
C686        C  0.52412578  0.82759732  0.23618888    -0.22500
C687        C  0.50778941  0.84255587  0.24179980     0.12000
S688        S  0.46453110  0.85528069  0.23604532    -0.06200
C689        C  0.49091912  0.87117894  0.26604358    -0.09700
C690        C  0.51277168  0.86262992  0.26593507    -0.26300
S691        S  0.52985078  0.78429907  0.20236356    -0.03500
C692        C  0.50386520  0.76849639  0.17212280    -0.16900
C693        C  0.48448278  0.78004213  0.16915051    -0.14900
H694        H  0.45455458  0.81188420  0.18337064     0.20500
H695        H  0.54294166  0.83148054  0.25118922     0.16500
H696        H  0.53058994  0.86971466  0.28343219     0.19000
H697        H  0.46624047  0.77215043  0.15205533     0.12400
C698        C  0.31838757  0.50400817  0.46601613     0.16200
C699        C  0.33952965  0.51364316  0.44142791    -0.32800
C700        C  0.35208476  0.99547147  0.43366555     0.20600
C701        C  0.34417088  0.96890165  0.44979319     0.02800
C702        C  0.32367185  0.95972385  0.47516127    -0.22500
C703        C  0.31093134  0.97789340  0.48282947     0.12000
S704        S  0.29821542  0.52117984  0.47632624    -0.06200
C705        C  0.27978492  0.99325894  0.00401205    -0.09700
C706        C  0.28905540  0.97187846  0.00520453    -0.26300
S707        S  0.36022305  0.94887914  0.43479644    -0.03500
C708        C  0.37786286  0.97678273  0.40668690    -0.16900
C709        C  0.37168599  0.50031353  0.40933311    -0.14900
H710        H  0.34514334  0.53389696  0.42812947     0.20500
H711        H  0.31719470  0.93885998  0.48766807     0.16500
H712        H  0.27905702  0.95209293  0.02024866     0.19000
H713        H  0.38029700  0.51952214  0.39353638     0.12400
C714        C  0.09594615  0.98606327  0.46223019     0.16200
C715        C  0.11054170  0.98645659  0.49062502    -0.32800
C716        C  0.13940822  0.98929215  0.48841650     0.20600
C717        C  0.15300923  0.99193813  0.45927676     0.02800
C718        C  0.13856247  0.99159245  0.43117702    -0.22500
C719        C  0.10984146  0.98846304  0.43335921     0.12000
S720        S  0.06064262  0.98219171  0.45904694    -0.06200
C721        C  0.06495095  0.98357713  0.41848262    -0.09700
C722        C  0.09230186  0.98703310  0.40839005    -0.26300
S723        S  0.18749011  0.99463235  0.46083861    -0.03500
C724        C  0.18391067  0.99180228  0.00133784    -0.16900
C725        C  0.15717480  0.98919965  0.01289799    -0.14900
H726        H  0.09977816  0.98428445  0.01330344     0.21200
H727        H  0.14915366  0.99334052  0.40847112     0.16500
H728        H  0.09901268  0.98829525  0.38387304     0.19000
H729        H  0.15089512  0.98685085  0.03761961     0.12400
C730        C  0.31886553  0.98747813  0.19080887     0.16200
C731        C  0.34807485  0.99961975  0.20363241    -0.32800
C732        C  0.35227783  0.98310647  0.22757791     0.20600
C733        C  0.32862266  0.95541098  0.23760000     0.02800
C734        C  0.29947610  0.94348406  0.22506589    -0.22500
C735        C  0.29510188  0.96033594  0.20184782     0.12000
S736        S  0.30864799  0.00425646  0.16227039    -0.06200
C737        C  0.27195941  0.97490498  0.16626086    -0.09700
C738        C  0.26805558  0.95321221  0.18813462    -0.26300
S739        S  0.33794311  0.93872034  0.26674134    -0.03500
C740        C  0.37395527  0.96977018  0.26635654    -0.16900
C741        C  0.37846509  0.99165636  0.24424601    -0.14900
H742        H  0.36653010  0.02119470  0.19571728     0.20500
H743        H  0.28086669  0.92225185  0.23350814     0.16500
H744        H  0.24650347  0.93347755  0.19390402     0.19000
H745        H  0.39950453  0.01279238  0.24095456     0.12400
C746        C  0.14655684  0.97557588  0.21468113     0.16200
C747        C  0.13387296  0.97845458  0.24286367    -0.32800
C748        C  0.10539460  0.97602408  0.24126568     0.20600
C749        C  0.08998727  0.97096103  0.21286616     0.02800
C750        C  0.10281544  0.96816148  0.18441208    -0.22500
C751        C  0.13157109  0.97067510  0.18600370     0.12000
S752        S  0.18083870  0.97780376  0.21232772    -0.06200
C753        C  0.17555960  0.97238245  0.17205763    -0.09700
C754        C  0.14827383  0.96894847  0.16121427    -0.26300
S755        S  0.05544315  0.96873256  0.21659780    -0.03500
C756        C  0.06214028  0.97463565  0.25675933    -0.16900
C757        C  0.08963405  0.97811895  0.26635239    -0.14900
H758        H  0.14573146  0.98240043  0.26517458     0.20500
H759        H  0.09097475  0.96425557  0.16211059     0.16500
H760        H  0.14111064  0.96542151  0.13670558     0.19000
H761        H  0.09774414  0.98204044  0.29055701     0.12400
C762        C  0.37482410  0.84604123  0.43326637     0.16200
C763        C  0.35104018  0.81665320  0.43877265    -0.32800
C764        C  0.33969350  0.80957493  0.46948930     0.20600
C765        C  0.35191055  0.83056724  0.49401416     0.02800
C766        C  0.37630552  0.86003011  0.48860134    -0.22500
C767        C  0.38730437  0.86739342  0.45748599     0.12000
S768        S  0.38941800  0.85915185  0.39696753    -0.06200
C769        C  0.41272241  0.89412928  0.41407196    -0.09700
C770        C  0.40950433  0.89526456  0.44659693    -0.26300
S771        S  0.33321079  0.81766060  0.02915285    -0.03500
C772        C  0.30843456  0.78401880  0.01016505    -0.16900
C773        C  0.31502153  0.78291736  0.47858516    -0.14900
H774        H  0.34103674  0.80030676  0.41961888     0.20500
H775        H  0.38555951  0.87672107  0.50751199     0.16500
H776        H  0.42189656  0.91542208  0.46115558     0.19000
H777        H  0.30172465  0.76400318  0.46271730     0.12400
C778        C  0.12077608  0.62182315  0.44963277     0.16200
C779        C  0.13204544  0.64228919  0.47527621    -0.32800
C780        C  0.16352163  0.65796637  0.48042947     0.20600
C781        C  0.18282905  0.65371140  0.46065290     0.02800
C782        C  0.17152650  0.63278267  0.43561541    -0.22500
C783        C  0.14016429  0.61689333  0.43073249     0.12000
S784        S  0.08365475  0.60192400  0.43788443    -0.06200
C785        C  0.09452013  0.58645906  0.40769093    -0.09700
C786        C  0.12519296  0.59628414  0.40704320    -0.26300
S787        S  0.22032527  0.67627040  0.96918109    -0.03500
C788        C  0.21005365  0.69106586  0.00038307    -0.16900
C789        C  0.17908046  0.67916761  0.50370225    -0.14900
H790        H  0.11703465  0.64617132  0.49021003     0.20500
H791        H  0.18659825  0.62938203  0.42025729     0.16500
H792        H  0.13615025  0.58959870  0.38934554     0.19000
H793        H  0.16863819  0.68629088  0.52154905     0.12400
C794        C  0.32231991  0.81852255  0.21518254     0.16200
C795        C  0.33680387  0.83324313  0.24316541    -0.32800
C796        C  0.36539333  0.85907425  0.24079786     0.20600
C797        C  0.37935820  0.86998980  0.21189612     0.02800
C798        C  0.36488519  0.85495895  0.18362280    -0.22500
C799        C  0.33593473  0.82895896  0.18600800     0.12000
S800        S  0.28725218  0.78727128  0.21374401    -0.06200
C801        C  0.29048281  0.78779106  0.17324579    -0.09700
C802        C  0.31767202  0.81119521  0.16161652    -0.26300
S803        S  0.41414355  0.90236156  0.21486682    -0.03500
C804        C  0.40934002  0.90073544  0.25536799    -0.16900
C805        C  0.38239162  0.87641191  0.26560021    -0.14900
H806        H  0.32607901  0.82504565  0.26589694     0.20500
H807        H  0.37552656  0.86326477  0.16089109     0.16500
H808        H  0.32365135  0.81502976  0.13682563     0.19000
H809        H  0.37543347  0.87171290  0.29009937     0.12400
C810        C  0.12251833  0.61045401  0.22071736     0.16200
C811        C  0.14126379  0.62085700  0.19395569    -0.32800
C812        C  0.15636532  0.65218131  0.18783516     0.20600
C813        C  0.15274192  0.67212378  0.20744340     0.02800
C814        C  0.13320001  0.66161306  0.23343849    -0.22500
C815        C  0.11832952  0.63043126  0.23963937     0.12000
S816        S  0.10470109  0.57391987  0.23426552    -0.06200
C817        C  0.09131122  0.58578433  0.26547798    -0.09700
C818        C  0.10002670  0.61631906  0.26498664    -0.26300
S819        S  0.17575291  0.70948017  0.19870205    -0.03500
C820        C  0.19023028  0.69830685  0.16796215    -0.16900
C821        C  0.17753883  0.66712140  0.16462913    -0.14900
H822        H  0.14486975  0.60540813  0.17930269     0.20500
H823        H  0.13067572  0.67724213  0.24894914     0.16500
H824        H  0.09423650  0.62783058  0.28296099     0.19000
H825        H  0.18494441  0.65615682  0.14766435     0.12400
C826        C  0.21745305  0.72062535  0.65100399     0.80500
N827        N  0.24002749  0.74346270  0.66787272    -0.77800
C828        C  0.26588194  0.76439906  0.65367962     0.82900
N829        N  0.26890352  0.76276880  0.62198388    -0.77700
C830        C  0.24631552  0.74013280  0.60461944     0.83000
N831        N  0.22065614  0.71873347  0.61924589    -0.79500
C832        C  0.23299129  0.71541123  0.52050878     0.80500
N833        N  0.22838743  0.71658162  0.55206024    -0.77800
C834        C  0.25025471  0.73901016  0.57027949     0.82900
N835        N  0.27630106  0.76062403  0.55666848    -0.77700
C836        C  0.28094996  0.75966662  0.52520964     0.83000
N837        N  0.25934141  0.73680124  0.50734414    -0.79500
C838        C  0.24651004  0.97444108  0.64984416     0.80500
N839        N  0.22265882  0.97163810  0.66661667    -0.77800
C840        C  0.19946619  0.97264311  0.65208748     0.82900
N841        N  0.20004476  0.97603709  0.62006832    -0.77700
C842        C  0.22398276  0.97860702  0.60303980     0.83000
N843        N  0.24726484  0.97822876  0.61817756    -0.79500
C844        C  0.25356699  0.99051265  0.52141181     0.80500
N845        N  0.23219530  0.99342568  0.50554060    -0.77800
C846        C  0.20739472  0.99061817  0.52052774     0.82900
N847        N  0.20430178  0.98550928  0.55225364    -0.77700
C848        C  0.22596303  0.98296596  0.56855209     0.83000
N849        N  0.25033487  0.98508985  0.55291114    -0.79500
C850        C  0.50128795  0.74323531  0.65273502     0.80500
N851        N  0.49382726  0.74090685  0.62155602    -0.77800
C852        C  0.49091332  0.71705147  0.60411214     0.82900
N853        N  0.49472164  0.69522158  0.61815194    -0.77700
C854        C  0.50198416  0.69724964  0.64923283     0.83000
N855        N  0.50547749  0.72149557  0.66638880    -0.79500
C856        C  0.47365558  0.73153030  0.52263475     0.80500
N857        N  0.48130099  0.73590288  0.55393816    -0.77800
C858        C  0.48301939  0.71381924  0.57035958     0.82900
N859        N  0.47765022  0.68797929  0.55534384    -0.77700
C860        C  0.47033343  0.68356747  0.52433825     0.83000
N861        N  0.46819881  0.70532434  0.50806365    -0.79500
O862        O  0.41938434  0.49893695  0.79541068    -0.87900
C863        C  0.07363185  0.56623081  0.88310055     1.12100
O864        O  0.45402591  0.97623237  0.83635053    -1.35700
O865        O  0.05446594  0.57162397  0.80510302    -0.89400
O866        O  0.39121623  0.94916661  0.80476588    -0.90000
O867        O  0.45519922  0.94592982  0.76953020    -0.78900
O868        O  0.48671288  0.53583734  0.80751934    -1.01000
C869        C  0.04077956  0.97576246  0.77949705     1.22200
O870        O  0.48681353  0.94608159  0.83692593    -1.35900
Mn871      Mn  0.48547161  0.97732043  0.87160784     1.82100
O872        O  0.01781552  0.97661680  0.77063025    -0.77900
O873        O  0.07632577  0.54331723  0.79855527    -0.87300
C874        C  0.04191439  0.98095269  0.89573241     1.13300
C875        C  0.07287897  0.56556705  0.79113176     1.08000
O876        O  0.45441116  0.94442453  0.90374890    -0.78900
O877        O  0.01735358  0.50907532  0.83738678    -1.32600
O878        O  0.42881662  0.91671938  0.86536654    -0.98100
C879        C  0.48912648  0.89044204  0.79107340     1.06700
Mn880      Mn  0.06050695  0.51229989  0.83599448     1.48600
O881        O  0.46335585  0.88717401  0.79752540    -0.87300
Mn882      Mn  0.41205662  0.93526809  0.83778379     1.49600
O883        O  0.41398671  0.99959530  0.86608171    -0.91200
C884        C  0.48899383  0.53353627  0.77924704     1.19900
C885        C  0.39700404  0.97537208  0.88124750     1.12000
Mn886      Mn  0.48641421  0.97727891  0.80233807     1.81000
O887        O  0.04623323  0.97989544  0.86746112    -0.96300
Mn888      Mn  0.44973826  0.51528491  0.83348489     1.49300
C889        C  0.39651342  0.97292007  0.78989873     1.08500
Mn890      Mn  0.02742283  0.94422183  0.83929649     1.49900
C891        C  0.48667214  0.88981391  0.88311656     1.11400
O892        O  0.42727547  0.91766907  0.80630659    -1.02100
O893        O  0.07985299  0.54764199  0.86948726    -0.91800
C894        C  0.43151986  0.92259284  0.77804787     1.22700
O895        O  0.04573024  0.97676387  0.80786314    -1.02500
O896        O  0.05089253  0.56881802  0.87582811    -0.89900
O897        O  0.01212014  0.91298020  0.87668364    -0.89500
O898        O  0.39556682  0.95014703  0.87522028    -0.89500
Mn899      Mn  0.01979331  0.55173924  0.83850294     1.47900
O900        O  0.01760889  0.97934665  0.90426908    -0.78000
C901        C  0.43286551  0.91974899  0.89375859     1.15700
O902        O  0.48759507  0.50955450  0.76938091    -0.76700
O903        O  0.48272966  0.50811112  0.90436233    -0.76400
Mn904      Mn  0.44731964  0.90264312  0.83446776     1.51100
O905        O  0.01332225  0.90904230  0.80564711    -0.88700
O906        O  0.48274115  0.53563118  0.86634062    -0.96200
O907        O  0.46241307  0.88310924  0.86826337    -0.91300
C908        C  0.48090459  0.53052778  0.89504530     1.13500
C909        C  0.46984780  0.59257030  0.93211329     0.16200
C910        C  0.96728896  0.61836346  0.93639973    -0.32800
C911        C  0.46608024  0.62726188  0.96729470     0.20600
C912        C  0.46702041  0.61097185  0.99299418     0.02800
C913        C  0.46908476  0.58460209  0.98866224    -0.22500
C914        C  0.47076923  0.57586818  0.95745668     0.12000
S915        S  0.97344057  0.58002858  0.89634038    -0.06200
C916        C  0.47643781  0.55167114  0.91505179    -0.09700
C917        C  0.47443484  0.55190676  0.94776406    -0.26300
S918        S  0.46752826  0.62719693  0.02862606    -0.03500
C919        C  0.46677726  0.65620066  0.50838292    -0.16900
C920        C  0.96568815  0.65298565  0.97591114    -0.14900
H921        H  0.96709006  0.63145355  0.91640487     0.20500
H922        H  0.47025531  0.57206605  0.00866253     0.16500
H923        H  0.47602428  0.53599403  0.96337121     0.19000
H924        H  0.96594763  0.66927742  0.95938292     0.12400
C925        C  0.49225806  0.84361287  0.95222492     0.16200
C926        C  0.00081637  0.83269118  0.97845647    -0.32800
C927        C  0.48444951  0.80121726  0.98417049     0.20600
C928        C  0.46070239  0.78167696  0.96460443     0.02800
C929        C  0.45157771  0.79269861  0.93913242    -0.22500
C930        C  0.46789008  0.82399978  0.93340672     0.12000
S931        S  0.01074156  0.88044528  0.93929385    -0.06200
C932        C  0.48506088  0.86920433  0.90848474    -0.09700
C933        C  0.46334429  0.83859328  0.90871017    -0.26300
S934        S  0.44563232  0.74415106  0.97323006    -0.03500
C935        C  0.47111702  0.75460333  0.50397962    -0.16900
C936        C  0.49020388  0.78578181  0.50727817    -0.14900
H937        H  0.01993338  0.84787908  0.99312768     0.20500
H938        H  0.43314469  0.77737571  0.92377814     0.16500
H939        H  0.44582096  0.82733872  0.89095025     0.19000
H940        H  0.00829532  0.79645395  0.52458187     0.12400
C941        C  0.50558939  0.60826584  0.74103917     0.16200
C942        C  0.51124316  0.63779058  0.73605840    -0.32800
C943        C  0.50812298  0.64568921  0.70529201     0.20600
C944        C  0.00034849  0.62531381  0.68032211     0.02800
C945        C  0.99528946  0.59576086  0.68521820    -0.22500
C946        C  0.99782038  0.58758832  0.71632097     0.12000
S947        S  0.50569608  0.59414742  0.77718502    -0.06200
C948        C  0.49493245  0.55962184  0.75931260    -0.09700
C949        C  0.99195410  0.55944385  0.72665778    -0.26300
S950        S  0.99588035  0.63907128  0.64515480    -0.03500
C951        C  0.50412691  0.67236462  0.66458704    -0.16900
C952        C  0.51051574  0.67265682  0.69645327    -0.14900
H953        H  0.51679590  0.65362329  0.75559651     0.20500
H954        H  0.98869666  0.57959298  0.66587083     0.16500
H955        H  0.98496828  0.53973406  0.71157649     0.19000
H956        H  0.51558051  0.69122920  0.71262843     0.12400
C957        C  0.48297826  0.83686071  0.72340706     0.16200
C958        C  0.47400481  0.81652824  0.69771446    -0.32800
C959        C  0.49044500  0.80161120  0.69202834     0.20600
C960        C  0.51460745  0.80660948  0.71116544     0.02800
C961        C  0.52412574  0.82758959  0.73619275    -0.22500
C962        C  0.50779756  0.84255751  0.74179831     0.12000
S963        S  0.46455833  0.85530771  0.73602539    -0.06200
C964        C  0.49093036  0.87118386  0.76604054    -0.09700
C965        C  0.51277421  0.86262318  0.76594078    -0.26300
S966        S  0.52984437  0.78428903  0.70236465    -0.03500
C967        C  0.50387266  0.76850543  0.67210921    -0.16900
C968        C  0.48450407  0.78006677  0.66912757    -0.14900
H969        H  0.45459345  0.81192839  0.68333645     0.20500
H970        H  0.54292997  0.83145779  0.75120374     0.16500
H971        H  0.53058145  0.86969351  0.78344859     0.19000
H972        H  0.46627076  0.77218793  0.65202309     0.12400
C973        C  0.31841452  0.50404825  0.96601739     0.16200
C974        C  0.33955423  0.51368138  0.94142644    -0.32800
C975        C  0.35208974  0.99546838  0.93367077     0.20600
C976        C  0.34415360  0.96888458  0.94978103     0.02800
C977        C  0.32364743  0.95970361  0.97514260    -0.22500
C978        C  0.31092302  0.97788509  0.98282221     0.12000
S979        S  0.29824210  0.52121969  0.97632894    -0.06200
C980        C  0.27977775  0.99325204  0.50401012    -0.09700
C981        C  0.28906741  0.97188678  0.50521668    -0.26300
S982        S  0.36018906  0.94885091  0.93477193    -0.03500
C983        C  0.37785166  0.97676805  0.90668006    -0.16900
C984        C  0.37170554  0.50034736  0.90932655    -0.14900
H985        H  0.34516668  0.53393430  0.92812699     0.20500
H986        H  0.31715277  0.93882892  0.98763564     0.16500
H987        H  0.27908486  0.95211076  0.52027430     0.19000
H988        H  0.38031548  0.51955481  0.89352840     0.12400
C989        C  0.09594219  0.98605512  0.96224067     0.16200
C990        C  0.11053900  0.98644624  0.99063368    -0.32800
C991        C  0.13941114  0.98929543  0.98842276     0.20600
C992        C  0.15301660  0.99195670  0.95928273     0.02800
C993        C  0.13856857  0.99161332  0.93118468    -0.22500
C994        C  0.10984180  0.98846999  0.93336913     0.12000
S995        S  0.06063207  0.98216838  0.95906020    -0.06200
C996        C  0.06494335  0.98356752  0.91849606    -0.09700
C997        C  0.09230006  0.98703908  0.90840171    -0.26300
S998        S  0.18750366  0.99466406  0.96084195    -0.03500
C999        C  0.18390093  0.99178609  0.50133557    -0.16900
C1000       C  0.15717047  0.98919748  0.51289409    -0.14900
H1001       H  0.09978421  0.98430703  0.51329441     0.21200
H1002       H  0.14916292  0.99337290  0.90847826     0.16500
H1003       H  0.09901361  0.98831171  0.88388447     0.19000
H1004       H  0.15089418  0.98686070  0.53761626     0.12400
C1005       C  0.31887262  0.98750718  0.69082256     0.16200
C1006       C  0.34807614  0.99965635  0.70366303    -0.32800
C1007       C  0.35228488  0.98312085  0.72757879     0.20600
C1008       C  0.32864184  0.95539807  0.73755604     0.02800
C1009       C  0.29950055  0.94346189  0.72500383    -0.22500
C1010       C  0.29511938  0.96033492  0.70181604     0.12000
S1011       S  0.30864892  0.00431046  0.66231814    -0.06200
C1012       C  0.27197083  0.97492642  0.66626087    -0.09700
C1013       C  0.26807447  0.95320568  0.68809467    -0.26300
S1014       S  0.33796745  0.93868720  0.76667186    -0.03500
C1015       C  0.37396391  0.96976413  0.76633741    -0.16900
C1016       C  0.37846563  0.99167352  0.74426008    -0.14900
H1017       H  0.36652187  0.02125353  0.69578426     0.20500
H1018       H  0.28089943  0.92220724  0.73341176     0.16500
H1019       H  0.24652851  0.93344840  0.69383154     0.19000
H1020       H  0.39949361  0.01282858  0.74100331     0.12400
C1021       C  0.14658784  0.97563883  0.71468994     0.16200
C1022       C  0.13390392  0.97851831  0.74287239    -0.32800
C1023       C  0.10541730  0.97606949  0.74127672     0.20600
C1024       C  0.09000392  0.97099161  0.71287899     0.02800
C1025       C  0.10283286  0.96819332  0.68442511    -0.22500
C1026       C  0.13159484  0.97072175  0.68601480     0.12000
S1027       S  0.18087423  0.97787627  0.71233440    -0.06200
C1028       C  0.17558526  0.97243411  0.67206699    -0.09700
C1029       C  0.14829463  0.96898937  0.66122589    -0.26300
S1030       S  0.05544890  0.96873822  0.71661289    -0.03500
C1031       C  0.06214788  0.97464813  0.75677345    -0.16900
C1032       C  0.08965150  0.97815426  0.76636441    -0.14900
H1033       H  0.14576671  0.98247433  0.76518199     0.20500
H1034       H  0.09098619  0.96427343  0.66212542     0.16500
H1035       H  0.14112404  0.96544666  0.63671932     0.19000
H1036       H  0.09776410  0.98208332  0.79056826     0.12400
C1037       C  0.37481157  0.84603353  0.93326810     0.16200
C1038       C  0.35102965  0.81664520  0.93877784    -0.32800
C1039       C  0.33967973  0.80957174  0.96949375     0.20600
C1040       C  0.35189117  0.83056927  0.99401469     0.02800
C1041       C  0.37628336  0.86003271  0.98859840    -0.22500
C1042       C  0.38728609  0.86739069  0.95748396     0.12000
S1043       S  0.38941108  0.85913815  0.89696932    -0.06200
C1044       C  0.41271028  0.89411921  0.91406915    -0.09700
C1045       C  0.40948597  0.89526033  0.94659230    -0.26300
S1046       S  0.33323178  0.81765440  0.52915244    -0.03500
C1047       C  0.30844854  0.78401825  0.51015946    -0.16900
C1048       C  0.31501060  0.78291349  0.97859258    -0.14900
H1049       H  0.34103082  0.80029428  0.91962712     0.20500
H1050       H  0.38553330  0.87672757  0.00750584     0.16500
H1051       H  0.42187421  0.91542087  0.96114777     0.19000
H1052       H  0.30171823  0.76399481  0.96272794     0.12400
C1053       C  0.12077526  0.62183257  0.94961779     0.16200
C1054       C  0.13204076  0.64229627  0.97526339    -0.32800
C1055       C  0.16351596  0.65797203  0.98042268     0.20600
C1056       C  0.18282621  0.65371890  0.96064862     0.02800
C1057       C  0.17152760  0.63279358  0.93560791    -0.22500
C1058       C  0.14016616  0.61690448  0.93072003     0.12000
S1059       S  0.08365531  0.60193201  0.93786580    -0.06200
C1060       C  0.09452460  0.58646799  0.90767493    -0.09700
C1061       C  0.12519789  0.59629524  0.90702972    -0.26300
S1062       S  0.22032974  0.67626633  0.46917713    -0.03500
C1063       C  0.21006262  0.69106615  0.50037874    -0.16900
C1064       C  0.17907122  0.67916901  0.00370034    -0.14900
H1065       H  0.11702757  0.64617646  0.99019554     0.20500
H1066       H  0.18660167  0.62939408  0.92025227     0.16500
H1067       H  0.13615729  0.58961033  0.88933405     0.19000
H1068       H  0.16862650  0.68629066  0.02154598     0.12400
C1069       C  0.32230791  0.81854231  0.71517167     0.16200
C1070       C  0.33679569  0.83325598  0.74315556    -0.32800
C1071       C  0.36538708  0.85908446  0.74078925     0.20600
C1072       C  0.37934949  0.87000533  0.71188746     0.02800
C1073       C  0.36487220  0.85498190  0.68361289    -0.22500
C1074       C  0.33592068  0.82898333  0.68599705     0.12000
S1075       S  0.28724028  0.78729102  0.71373230    -0.06200
C1076       C  0.29046923  0.78781558  0.67323384    -0.09700
C1077       C  0.31765677  0.81122261  0.66160495    -0.26300
S1078       S  0.41413832  0.90237245  0.71486028    -0.03500
C1079       C  0.40933996  0.90073640  0.75536237    -0.16900
C1080       C  0.38239038  0.87641369  0.76559316    -0.14900
H1081       H  0.32607315  0.82505400  0.76588740     0.20500
H1082       H  0.37551215  0.86329103  0.66088106     0.16500
H1083       H  0.32363564  0.81505920  0.63681395     0.19000
H1084       H  0.37543456  0.87170960  0.79009265     0.12400
C1085       C  0.12254053  0.61045187  0.72071181     0.16200
C1086       C  0.14129818  0.62085741  0.69395917    -0.32800
C1087       C  0.15638477  0.65217951  0.68782834     0.20600
C1088       C  0.15273661  0.67211741  0.70741864     0.02800
C1089       C  0.13318355  0.66160351  0.73340463    -0.22500
C1090       C  0.11832700  0.63042396  0.73961521     0.12000
S1091       S  0.10473511  0.57392154  0.73427050    -0.06200
C1092       C  0.09131641  0.58578046  0.76546193    -0.09700
C1093       C  0.10001483  0.61631061  0.76495611    -0.26300
S1094       S  0.17573056  0.70947448  0.69866786    -0.03500
C1095       C  0.19023326  0.69830720  0.66794724    -0.16900
C1096       C  0.17756356  0.66712311  0.66462788    -0.14900
H1097       H  0.14492310  0.60541281  0.67932053     0.20500
H1098       H  0.13063938  0.67722912  0.74890107     0.16500
H1099       H  0.09420625  0.62781902  0.78291671     0.19000
H1100       H  0.18498672  0.65616357  0.64767644     0.12400
C1101       C  0.71748903  0.22059744  0.15100545     0.80500
N1102       N  0.74006485  0.24343505  0.16787207    -0.77800
C1103       C  0.76591581  0.26437404  0.15367617     0.82900
N1104       N  0.76893206  0.26274605  0.12197902    -0.77700
C1105       C  0.74634154  0.24010939  0.10461666     0.83000
N1106       N  0.72068587  0.21870804  0.11924616    -0.79500
C1107       C  0.73299324  0.21540716  0.02049970     0.80500
N1108       N  0.72839715  0.21656926  0.05205458    -0.77800
C1109       C  0.75027134  0.23899152  0.07027461     0.82900
N1110       N  0.77631586  0.26060590  0.05666194    -0.77700
C1111       C  0.78095683  0.25965574  0.02520071     0.83000
N1112       N  0.75934208  0.23679786  0.00733396    -0.79500
C1113       C  0.74648581  0.47439404  0.14984658     0.80500
N1114       N  0.72263125  0.47158517  0.16661758    -0.77800
C1115       C  0.69944152  0.47259597  0.15208893     0.82900
N1116       N  0.70002601  0.47600176  0.12007124    -0.77700
C1117       C  0.72396702  0.47857760  0.10304382     0.83000
N1118       N  0.74724636  0.47819372  0.11818151    -0.79500
C1119       C  0.75356798  0.49051421  0.02142170     0.80500
N1120       N  0.73219906  0.49343209  0.00555045    -0.77800
C1121       C  0.70739495  0.49061848  0.02053550     0.82900
N1122       N  0.70429564  0.48549816  0.05225947    -0.77700
C1123       C  0.72595407  0.48294984  0.06855790     0.83000
N1124       N  0.75032918  0.48507985  0.05291868    -0.79500
C1125       C  0.00134358  0.24326998  0.15273220     0.80500
N1126       N  0.99389004  0.24094337  0.12155121    -0.77800
C1127       C  0.99098046  0.21708944  0.10410818     0.82900
N1128       N  0.99478471  0.19525831  0.11815100    -0.77700
C1129       C  0.00203958  0.19728366  0.14923398     0.83000
N1130       N  0.00552952  0.22152893  0.16638938    -0.79500
C1131       C  0.97371312  0.23155838  0.02263014     0.80500
N1132       N  0.98136335  0.23593559  0.05393241    -0.77800
C1133       C  0.98308835  0.21385604  0.07035494     0.82900
N1134       N  0.97772018  0.18801543  0.05534160    -0.77700
C1135       C  0.97039797  0.18359864  0.02433758     0.83000
N1136       N  0.96825696  0.20535133  0.00806182    -0.79500
O1137       O  0.91937479  0.99892095  0.29540419    -0.87900
C1138       C  0.57363781  0.06622708  0.38309088     1.12100
O1139       O  0.95402458  0.47623493  0.33636151    -1.35700
O1140       O  0.55447343  0.07161310  0.30508829    -0.89400
O1141       O  0.89121000  0.44916780  0.30479070    -0.90000
O1142       O  0.95519803  0.44594211  0.26953601    -0.78900
O1143       O  0.98670331  0.03583735  0.30752324    -1.01000
C1144       C  0.54076921  0.47574727  0.27949629     1.22200
O1145       O  0.98681591  0.44608840  0.33692754    -1.35900
Mn1146     Mn  0.98547221  0.47732260  0.37161535     1.82100
O1147       O  0.51780599  0.47660382  0.27063035    -0.77900
O1148       O  0.57633247  0.04330418  0.29855200    -0.87300
C1149       C  0.54191115  0.48094639  0.39573186     1.13300
C1150       C  0.57288711  0.06555340  0.29112284     1.08000
O1151       O  0.95441621  0.44442124  0.40375366    -0.78900
O1152       O  0.51735808  0.00907097  0.33738097    -1.32600
O1153       O  0.92882345  0.41671767  0.36536951    -0.98100
C1154       C  0.98913368  0.39045495  0.29106500     1.06700
Mn1155     Mn  0.56050925  0.01229010  0.33599230     1.48600
O1156       O  0.96336191  0.38718483  0.29751568    -0.87300
Mn1157     Mn  0.91205847  0.43526763  0.33779618     1.49600
O1158       O  0.91397896  0.49958553  0.36609832    -0.91200
C1159       C  0.98898952  0.03354040  0.27925085     1.19900
C1160       C  0.89700387  0.47536217  0.38126750     1.12000
Mn1161     Mn  0.98641312  0.47728871  0.30234567     1.81000
O1162       O  0.54622893  0.47988567  0.36746065    -0.96300
Mn1163     Mn  0.94972495  0.01526969  0.33348319     1.49300
C1164       C  0.89650328  0.47291944  0.28992250     1.08500
Mn1165     Mn  0.52741336  0.44421142  0.33929679     1.49900
C1166       C  0.98667953  0.38981871  0.38311159     1.11400
O1167       O  0.92727618  0.41767433  0.30630995    -1.02100
O1168       O  0.57985556  0.04763363  0.36948281    -0.91800
C1169       C  0.93151991  0.42260256  0.27805169     1.22700
O1170       O  0.54572174  0.47675113  0.30786206    -1.02500
O1171       O  0.55090214  0.06881868  0.37581351    -0.89900
O1172       O  0.51211237  0.41297278  0.37668501    -0.89500
O1173       O  0.89557314  0.45014017  0.37524116    -0.89500
Mn1174     Mn  0.51980164  0.05173668  0.33848969     1.47900
O1175       O  0.51760908  0.47934743  0.40426861    -0.78000
C1176       C  0.93287515  0.41974383  0.39376124     1.15700
O1177       O  0.98759569  0.00956138  0.26938257    -0.76700
O1178       O  0.98272011  0.00809901  0.40436444    -0.76400
Mn1179     Mn  0.94732504  0.40264732  0.33446438     1.51100
O1180       O  0.51330491  0.40902916  0.30564723    -0.88700
O1181       O  0.98272352  0.03561532  0.36634427    -0.96200
O1182       O  0.96242114  0.38311058  0.36825502    -0.91300
C1183       C  0.98089350  0.03051542  0.39504926     1.13500
C1184       C  0.96988746  0.09258950  0.43211967     0.16200
C1185       C  0.46734917  0.11840552  0.43637811    -0.32800
C1186       C  0.96614000  0.12729420  0.46729931     0.20600
C1187       C  0.96708256  0.11100645  0.49299985     0.02800
C1188       C  0.96913977  0.08463237  0.48866949    -0.22500
C1189       C  0.97081095  0.07588937  0.45746400     0.12000
S1190       S  0.47351628  0.08007610  0.39632384    -0.06200
C1191       C  0.97644461  0.05166970  0.41505778    -0.09700
C1192       C  0.97445889  0.05191686  0.44777136    -0.26300
S1193       S  0.96759391  0.12723517  0.52863043    -0.03500
C1194       C  0.96683585  0.15622761  0.00838654    -0.16900
C1195       C  0.46571132  0.15300779  0.47589026    -0.14900
H1196       H  0.46717662  0.13150940  0.41638402     0.20500
H1197       H  0.97031012  0.07209694  0.50867063     0.16500
H1198       H  0.97604645  0.03600338  0.46337910     0.19000
H1199       H  0.46599298  0.16931168  0.45936418     0.12400
C1200       C  0.99227160  0.34362713  0.45222744     0.16200
C1201       C  0.50079379  0.33267841  0.47845774    -0.32800
C1202       C  0.98446860  0.30123653  0.48417867     0.20600
C1203       C  0.96071236  0.28169416  0.46462347     0.02800
C1204       C  0.95157998  0.29271283  0.43915460    -0.22500
C1205       C  0.96789529  0.32401269  0.43341961     0.12000
S1206       S  0.51073269  0.38043549  0.43929376    -0.06200
C1207       C  0.98506910  0.36921199  0.40848362    -0.09700
C1208       C  0.96334627  0.33860269  0.40872107    -0.26300
S1209       S  0.94564422  0.24416913  0.47325472    -0.03500
C1210       C  0.97116463  0.25462572  0.00397414    -0.16900
C1211       C  0.99023670  0.28580621  0.00727814    -0.14900
H1212       H  0.51991337  0.34786251  0.49312776     0.20500
H1213       H  0.93314061  0.27738832  0.42380807     0.16500
H1214       H  0.94581666  0.32734648  0.39096783     0.19000
H1215       H  0.50823846  0.29643067  0.02459616     0.12400
C1216       C  0.00560397  0.10827834  0.24104452     0.16200
C1217       C  0.01127106  0.13780787  0.23606305    -0.32800
C1218       C  0.00815444  0.14570962  0.20529651     0.20600
C1219       C  0.50029597  0.12528637  0.18031323     0.02800
C1220       C  0.49524150  0.09573495  0.18520905    -0.22500
C1221       C  0.49779238  0.08756940  0.21630879     0.12000
S1222       S  0.00570734  0.09415703  0.27719024    -0.06200
C1223       C  0.99493147  0.05962850  0.25931794    -0.09700
C1224       C  0.49193344  0.05942730  0.22664629    -0.26300
S1225       S  0.49580945  0.13903700  0.14515012    -0.03500
C1226       C  0.00417231  0.17239333  0.16459033    -0.16900
C1227       C  0.01056084  0.17268335  0.19645658    -0.14900
H1228       H  0.01683213  0.15364261  0.25560069     0.20500
H1229       H  0.48863814  0.07956327  0.16586419     0.16500
H1230       H  0.48493708  0.03971388  0.21156781     0.19000
H1231       H  0.01563482  0.19125875  0.21263085     0.12400
C1232       C  0.98299708  0.33687560  0.22339905     0.16200
C1233       C  0.97402643  0.31653936  0.19770968    -0.32800
C1234       C  0.99047710  0.30163320  0.19202194     0.20600
C1235       C  0.01464727  0.30664577  0.21115427     0.02800
C1236       C  0.02416277  0.32763005  0.23617754    -0.22500
C1237       C  0.00782387  0.34258664  0.24178502     0.12000
S1238       S  0.96456535  0.35531013  0.23602090    -0.06200
C1239       C  0.99094217  0.37119986  0.26603060    -0.09700
C1240       C  0.01279624  0.36265280  0.26592574    -0.26300
S1241       S  0.02989695  0.28433627  0.20235374    -0.03500
C1242       C  0.00392030  0.26853801  0.17210453    -0.16900
C1243       C  0.98454076  0.28008675  0.16912477    -0.14900
H1244       H  0.95460910  0.31192805  0.18333563     0.20500
H1245       H  0.04297304  0.33150937  0.25118492     0.16500
H1246       H  0.03060826  0.36973261  0.28342949     0.19000
H1247       H  0.96630324  0.27219773  0.15202399     0.12400
C1248       C  0.81837990  0.00399400  0.46599672     0.16200
C1249       C  0.83951544  0.01362619  0.44140255    -0.32800
C1250       C  0.85207292  0.49543849  0.43368542     0.20600
C1251       C  0.84415474  0.46886386  0.44980539     0.02800
C1252       C  0.82365024  0.45967947  0.47516865    -0.22500
C1253       C  0.81090832  0.47784723  0.48283878     0.12000
S1254       S  0.79820763  0.02116446  0.47631005    -0.06200
C1255       C  0.77978060  0.49325545  0.00402216    -0.09700
C1256       C  0.78907009  0.47189011  0.00522943    -0.26300
S1257       S  0.86020697  0.44884326  0.43480378    -0.03500
C1258       C  0.87785149  0.47675374  0.40670197    -0.16900
C1259       C  0.87167168  0.00029880  0.40930537    -0.14900
H1260       H  0.84512364  0.03387703  0.42810103     0.20500
H1261       H  0.81716921  0.43881168  0.48766917     0.16500
H1262       H  0.77908592  0.45211316  0.02028584     0.19000
H1263       H  0.88027806  0.01950529  0.39350612     0.12400
C1264       C  0.59592400  0.48602573  0.46224336     0.16200
C1265       C  0.61051014  0.48639644  0.49063665    -0.32800
C1266       C  0.63938598  0.48925442  0.48842853     0.20600
C1267       C  0.65300533  0.49194434  0.45929125     0.02800
C1268       C  0.63856827  0.49162225  0.43119309    -0.22500
C1269       C  0.60983740  0.48846895  0.43337428     0.12000
S1270       S  0.56061014  0.48212852  0.45905916    -0.06200
C1271       C  0.56493794  0.48355972  0.41849667    -0.09700
C1272       C  0.59230291  0.48705065  0.40840546    -0.26300
S1273       S  0.68749363  0.49465537  0.46085274    -0.03500
C1274       C  0.68390331  0.49179027  0.00134254    -0.16900
C1275       C  0.65716928  0.48919462  0.01289918    -0.14900
H1276       H  0.59977890  0.48429426  0.01329698     0.21200
H1277       H  0.64917319  0.49340324  0.40848844     0.16500
H1278       H  0.59902649  0.48834375  0.38388940     0.19000
H1279       H  0.65088858  0.48684955  0.03762041     0.12400
C1280       C  0.81885313  0.48744710  0.19080779     0.16200
C1281       C  0.84806388  0.49958896  0.20362787    -0.32800
C1282       C  0.85226581  0.48308475  0.22758444     0.20600
C1283       C  0.82860812  0.45539670  0.23761979     0.02800
C1284       C  0.79946027  0.44346958  0.22508886    -0.22500
C1285       C  0.79508712  0.46031334  0.20186020     0.12000
S1286       S  0.80863637  0.50421724  0.16225946    -0.06200
C1287       C  0.77194489  0.47487529  0.16626473    -0.09700
C1288       C  0.76803982  0.45319042  0.18814957    -0.26300
S1289       S  0.83792789  0.43871548  0.26677170    -0.03500
C1290       C  0.87394351  0.46975949  0.26637299    -0.16900
C1291       C  0.87845463  0.49163718  0.24425106    -0.14900
H1292       H  0.86652104  0.52115801  0.19570218     0.20500
H1293       H  0.78084906  0.42224374  0.23354166     0.16500
H1294       H  0.74648605  0.43346271  0.19392954     0.19000
H1295       H  0.89949660  0.51276831  0.24094923     0.12400
C1296       C  0.64656317  0.47559172  0.21469158     0.16200
C1297       C  0.63388148  0.47847618  0.24287338    -0.32800
C1298       C  0.60539668  0.47603162  0.24127731     0.20600
C1299       C  0.58998210  0.47095148  0.21288004     0.02800
C1300       C  0.60280845  0.46814731  0.18442690    -0.22500
C1301       C  0.63156940  0.47067320  0.18601668     0.12000
S1302       S  0.68084903  0.47782784  0.21233600    -0.06200
C1303       C  0.67555943  0.47238446  0.17206873    -0.09700
C1304       C  0.64826855  0.46893932  0.16122789    -0.26300
S1305       S  0.55543039  0.46870596  0.21661334    -0.03500
C1306       C  0.56213297  0.47462359  0.25677283    -0.16900
C1307       C  0.58963480  0.47812509  0.26636389    -0.14900
H1308       H  0.64574540  0.48243452  0.26518263     0.20500
H1309       H  0.59096133  0.46422665  0.16212730     0.16500
H1310       H  0.64109784  0.46539655  0.13672130     0.19000
H1311       H  0.59774928  0.48205771  0.29056713     0.12400
C1312       C  0.87484427  0.34601542  0.43326525     0.16200
C1313       C  0.85106665  0.31662429  0.43877297    -0.32800
C1314       C  0.83971149  0.30954953  0.46948689     0.20600
C1315       C  0.85191589  0.33054787  0.49400797     0.02800
C1316       C  0.87630440  0.36001326  0.48859418    -0.22500
C1317       C  0.88731036  0.36737311  0.45748158     0.12000
S1318       S  0.88944377  0.35912463  0.39696760    -0.06200
C1319       C  0.91272957  0.39410820  0.41406925    -0.09700
C1320       C  0.90950287  0.39524662  0.44659187    -0.26300
S1321       S  0.83323896  0.31764062  0.02914553    -0.03500
C1322       C  0.80845397  0.28400701  0.01015021    -0.16900
C1323       C  0.81504149  0.28289057  0.47858274    -0.14900
H1324       H  0.84107297  0.30027324  0.41962168     0.20500
H1325       H  0.88554718  0.37670882  0.50750141     0.16500
H1326       H  0.92188220  0.41540828  0.46114775     0.19000
H1327       H  0.80175257  0.26397118  0.46271771     0.12400
C1328       C  0.62078466  0.12182934  0.44960630     0.16200
C1329       C  0.63205291  0.14229430  0.47525085    -0.32800
C1330       C  0.66352829  0.15796612  0.48040987     0.20600
C1331       C  0.68283579  0.15370784  0.46063667     0.02800
C1332       C  0.67153433  0.13278115  0.43559764    -0.22500
C1333       C  0.64017307  0.11689621  0.43070994     0.12000
S1334       S  0.58366458  0.10193312  0.43785355    -0.06200
C1335       C  0.59453095  0.08646436  0.40766467    -0.09700
C1336       C  0.62520303  0.09628680  0.40702066    -0.26300
S1337       S  0.72033149  0.17630099  0.96913563    -0.03500
C1338       C  0.71006215  0.19106794  0.00036553    -0.16900
C1339       C  0.67908661  0.17916362  0.50368623    -0.14900
H1340       H  0.61704187  0.14617847  0.49018215     0.20500
H1341       H  0.68660636  0.12937761  0.42024280     0.16500
H1342       H  0.63616066  0.08959837  0.38932633     0.19000
H1343       H  0.66864464  0.18628883  0.52153149     0.12400
C1344       C  0.82232899  0.31853318  0.21516789     0.16200
C1345       C  0.83680957  0.33325295  0.24315208    -0.32800
C1346       C  0.86539694  0.35908695  0.24078761     0.20600
C1347       C  0.87936247  0.37000765  0.21188704     0.02800
C1348       C  0.86489199  0.35497859  0.18361190    -0.22500
C1349       C  0.83594427  0.32897404  0.18599419     0.12000
S1350       S  0.78726718  0.28727428  0.21372723    -0.06200
C1351       C  0.79050092  0.28779518  0.17322929    -0.09700
C1352       C  0.81768632  0.31120679  0.16160147    -0.26300
S1353       S  0.91414708  0.40238006  0.21486263    -0.03500
C1354       C  0.90934276  0.40074589  0.25536403    -0.16900
C1355       C  0.88239404  0.37642052  0.26559242    -0.14900
H1356       H  0.82608473  0.32505073  0.26588308     0.20500
H1357       H  0.87553449  0.36328749  0.16088093     0.16500
H1358       H  0.82366736  0.31504264  0.13681085     0.19000
H1359       H  0.87543541  0.37171612  0.29009122     0.12400
C1360       C  0.62256291  0.11043114  0.22071015     0.16200
C1361       C  0.64132419  0.12083389  0.19396013    -0.32800
C1362       C  0.65641737  0.15215629  0.18783064     0.20600
C1363       C  0.65277292  0.17209698  0.20742024     0.02800
C1364       C  0.63321727  0.16158626  0.23340376    -0.22500
C1365       C  0.61835323  0.13040649  0.23961225     0.12000
S1366       S  0.60474710  0.07390011  0.23426657    -0.06200
C1367       C  0.59132907  0.08576382  0.26545440    -0.09700
C1368       C  0.60003566  0.11629568  0.26494980    -0.26300
S1369       S  0.67577179  0.20945290  0.19867062    -0.03500
C1370       C  0.69027098  0.19828144  0.16795077    -0.16900
C1371       C  0.67759761  0.16709712  0.16463103    -0.14900
H1372       H  0.64494572  0.10538682  0.17932208     0.20500
H1373       H  0.63067558  0.17721394  0.24889917     0.16500
H1374       H  0.59422914  0.12780668  0.28290922     0.19000
H1375       H  0.68501786  0.15613545  0.14767909     0.12400
C1376       C  0.71748553  0.22058746  0.65100332     0.80500
N1377       N  0.74006241  0.24342157  0.66787290    -0.77800
C1378       C  0.76591482  0.26436073  0.65367842     0.82900
N1379       N  0.76893102  0.26273631  0.62198067    -0.77700
C1380       C  0.74633984  0.24010301  0.60461599     0.83000
N1381       N  0.72068319  0.21870150  0.61924370    -0.79500
C1382       C  0.73299871  0.21539655  0.52050047     0.80500
N1383       N  0.72839963  0.21656166  0.55205408    -0.77800
C1384       C  0.75027151  0.23898573  0.57027407     0.82900
N1385       N  0.77631662  0.26059964  0.55666205    -0.77700
C1386       C  0.78096065  0.25964659  0.52520176     0.83000
N1387       N  0.75934842  0.23678615  0.50733515    -0.79500
C1388       C  0.74647371  0.47437357  0.64984450     0.80500
N1389       N  0.72262407  0.47157552  0.66661657    -0.77800
C1390       C  0.69943160  0.47257943  0.65208599     0.82900
N1391       N  0.70000860  0.47596831  0.62006668    -0.77700
C1392       C  0.72394488  0.47853412  0.60303891     0.83000
N1393       N  0.74722708  0.47815663  0.61817722    -0.79500
C1394       C  0.75353632  0.49045656  0.52141513     0.80500
N1395       N  0.73217012  0.49338065  0.50554604    -0.77800
C1396       C  0.70736899  0.49057159  0.52053343     0.82900
N1397       N  0.70427060  0.48545064  0.55225688    -0.77700
C1398       C  0.72592679  0.48289700  0.56855276     0.83000
N1399       N  0.75029888  0.48502235  0.55291194    -0.79500
C1400       C  0.00132790  0.24325409  0.65275447     0.80500
N1401       N  0.99387865  0.24093120  0.62157282    -0.77800
C1402       C  0.99097726  0.21708268  0.60412629     0.82900
N1403       N  0.99478554  0.19525258  0.61816636    -0.77700
C1404       C  0.00203618  0.19727461  0.64925058     0.83000
N1405       N  0.00551781  0.22151487  0.66640911    -0.79500
C1406       C  0.97371473  0.23156330  0.52265094     0.80500
N1407       N  0.98136064  0.23593486  0.55395442    -0.77800
C1408       C  0.98309067  0.21385548  0.57037184     0.82900
N1409       N  0.97773247  0.18802121  0.55535223    -0.77700
C1410       C  0.97041513  0.18361006  0.52434693     0.83000
N1411       N  0.96826814  0.20536202  0.50807603    -0.79500
O1412       O  0.91936990  0.99891270  0.79541614    -0.87900
C1413       C  0.57362906  0.06622092  0.88310241     1.12100
O1414       O  0.95402638  0.47624318  0.83635688    -1.35700
O1415       O  0.55447020  0.07160953  0.80509631    -0.89400
O1416       O  0.89121082  0.44917778  0.80478952    -0.90000
O1417       O  0.95519174  0.44594175  0.76953336    -0.78900
O1418       O  0.98669757  0.03582590  0.80753805    -1.01000
C1419       C  0.54077135  0.47575346  0.77948493     1.22200
O1420       O  0.98681411  0.44609274  0.83692358    -1.35900
Mn1421     Mn  0.98547600  0.47733074  0.87160945     1.82100
O1422       O  0.51780656  0.47660692  0.77061933    -0.77900
O1423       O  0.57633285  0.04330359  0.79856459    -0.87300
C1424       C  0.54192293  0.48096054  0.89572039     1.13300
C1425       C  0.57288620  0.06555149  0.79113292     1.08000
O1426       O  0.95442008  0.44443275  0.90375276    -0.78900
O1427       O  0.51735411  0.00906401  0.83738679    -1.32600
O1428       O  0.92882456  0.41673174  0.86536945    -0.98100
C1429       C  0.98912203  0.39045238  0.79106670     1.06700
Mn1430     Mn  0.56050700  0.01228695  0.83600223     1.48600
O1431       O  0.96335127  0.38718338  0.79751996    -0.87300
Mn1432     Mn  0.91205857  0.43527890  0.83779552     1.49600
O1433       O  0.91398478  0.49960269  0.86608968    -0.91200
C1434       C  0.98898479  0.03353074  0.77926560     1.19900
C1435       C  0.89700943  0.47538183  0.88126227     1.12000
Mn1436     Mn  0.98641061  0.47729063  0.80233930     1.81000
O1437       O  0.54623842  0.47989699  0.86744910    -0.96300
Mn1438     Mn  0.94971813  0.01525758  0.83349589     1.49300
C1439       C  0.89650532  0.47292792  0.78991790     1.08500
Mn1440     Mn  0.52741753  0.44422110  0.83928743     1.49900
C1441       C  0.98667708  0.38982462  0.88310895     1.11400
O1442       O  0.92727089  0.41767841  0.80631026    -1.02100
O1443       O  0.57984870  0.04762876  0.86949468    -0.91800
C1444       C  0.93151427  0.42260256  0.77805125     1.22700
O1445       O  0.54572582  0.47675907  0.80785048    -1.02500
O1446       O  0.55089283  0.06881116  0.87582406    -0.89900
O1447       O  0.51211710  0.41298364  0.87667694    -0.89500
O1448       O  0.89557733  0.45015837  0.87523979    -0.89500
Mn1449     Mn  0.51979572  0.05172874  0.83849650     1.47900
O1450       O  0.51762222  0.47936487  0.90425744    -0.78000
C1451       C  0.93287488  0.41975767  0.89376105     1.15700
O1452       O  0.98759255  0.00955286  0.76939603    -0.76700
O1453       O  0.98270632  0.00808167  0.90437864    -0.76400
Mn1454     Mn  0.94732030  0.40265359  0.83446620     1.51100
O1455       O  0.51330309  0.40903640  0.80564095    -0.88700
O1456       O  0.98271495  0.03559935  0.86635809    -0.96200
O1457       O  0.96241729  0.38311920  0.86825705    -0.91300
C1458       C  0.98088008  0.03049797  0.89506272     1.13500
C1459       C  0.96985659  0.09256386  0.93212413     0.16200
C1460       C  0.46729145  0.11836373  0.93637470    -0.32800
C1461       C  0.96610616  0.12726977  0.96729881     0.20600
C1462       C  0.96704248  0.11098100  0.99300148     0.02800
C1463       C  0.96909687  0.08460490  0.98867456    -0.22500
C1464       C  0.97077408  0.07586253  0.95747038     0.12000
S1465       S  0.47346181  0.08003551  0.89632257    -0.06200
C1466       C  0.97642284  0.05164834  0.91506846    -0.09700
C1467       C  0.97442663  0.05189185  0.94778128    -0.26300
S1468       S  0.96755568  0.12721392  0.02863017    -0.03500
C1469       C  0.96686363  0.15624542  0.50839086    -0.16900
C1470       C  0.46567069  0.15297705  0.97588363    -0.14900
H1471       H  0.46711104  0.13146241  0.91637934     0.20500
H1472       H  0.97026368  0.07206932  0.00867730     0.16500
H1473       H  0.97601160  0.03597820  0.96339089     0.19000
H1474       H  0.46594643  0.16927647  0.95935523     0.12400
C1475       C  0.99226294  0.34362652  0.95221990     0.16200
C1476       C  0.50078259  0.33267822  0.97844893    -0.32800
C1477       C  0.98446352  0.30123207  0.98416180     0.20600
C1478       C  0.96072594  0.28168813  0.96458781     0.02800
C1479       C  0.95160094  0.29270694  0.93911343    -0.22500
C1480       C  0.96790411  0.32400949  0.93339350     0.12000
S1481       S  0.51071594  0.38044426  0.93930081    -0.06200
C1482       C  0.98506702  0.36921518  0.90847647    -0.09700
C1483       C  0.96335857  0.33860131  0.90869504    -0.26300
S1484       S  0.94566883  0.24416245  0.97320712    -0.03500
C1485       C  0.97116135  0.25463127  0.50400108    -0.16900
C1486       C  0.99024782  0.28581085  0.50729027    -0.14900
H1487       H  0.51988403  0.34786503  0.99313840     0.20500
H1488       H  0.93317564  0.27738131  0.92375282     0.16500
H1489       H  0.94584203  0.32734416  0.89092905     0.19000
H1490       H  0.50826256  0.29643241  0.52459526     0.12400
C1491       C  0.00558898  0.10826701  0.74106442     0.16200
C1492       C  0.01124831  0.13779400  0.73608478    -0.32800
C1493       C  0.00814597  0.14570029  0.70531562     0.20600
C1494       C  0.50032238  0.12529171  0.68032096     0.02800
C1495       C  0.49527149  0.09574138  0.68521461    -0.22500
C1496       C  0.49780954  0.08757045  0.71631586     0.12000
S1497       S  0.00567761  0.09414054  0.77721122    -0.06200
C1498       C  0.99492432  0.05961905  0.75933450    -0.09700
C1499       C  0.49194999  0.05942774  0.72665129    -0.26300
S1500       S  0.49584472  0.13904656  0.64515646    -0.03500
C1501       C  0.00417360  0.17238659  0.66460622    -0.16900
C1502       C  0.01054636  0.17267131  0.69647624    -0.14900
H1503       H  0.01679241  0.15362274  0.75562486     0.20500
H1504       H  0.48867899  0.07957389  0.66586676     0.16500
H1505       H  0.48496437  0.03971808  0.71156980     0.19000
H1506       H  0.01560377  0.19124029  0.71265320     0.12400
C1507       C  0.98297472  0.33685740  0.72341490     0.16200
C1508       C  0.97400157  0.31651654  0.69772970    -0.32800
C1509       C  0.99045240  0.30161028  0.69204453     0.20600
C1510       C  0.01462415  0.30662608  0.71117601     0.02800
C1511       C  0.02414148  0.32761408  0.73619552    -0.22500
C1512       C  0.00780330  0.34257175  0.74179952     0.12000
S1513       S  0.96454542  0.35529571  0.73603183    -0.06200
C1514       C  0.99092636  0.37119182  0.76603687    -0.09700
C1515       C  0.01277935  0.36264359  0.76593479    -0.26300
S1516       S  0.02987614  0.28431856  0.70237721    -0.03500
C1517       C  0.00389891  0.26851769  0.67212914    -0.16900
C1518       C  0.98451668  0.28006298  0.66914901    -0.14900
H1519       H  0.95458346  0.31190321  0.68335607     0.20500
H1520       H  0.04295351  0.33149667  0.75120164     0.16500
H1521       H  0.03059333  0.36972697  0.78343673     0.19000
H1522       H  0.96627936  0.27217251  0.65204790     0.12400
C1523       C  0.81838629  0.00400281  0.96600849     0.16200
C1524       C  0.83953184  0.01363738  0.94142361    -0.32800
C1525       C  0.85208748  0.49547269  0.93367919     0.20600
C1526       C  0.84417190  0.46890213  0.94980621     0.02800
C1527       C  0.82367373  0.45972580  0.97517492    -0.22500
C1528       C  0.81093508  0.47789689  0.98284367     0.12000
S1529       S  0.79823574  0.02119357  0.97633453    -0.06200
C1530       C  0.77974879  0.49319918  0.50401562    -0.09700
C1531       C  0.78903832  0.47183392  0.50522008    -0.26300
S1532       S  0.86021970  0.44887631  0.93480686    -0.03500
C1533       C  0.87785948  0.47677913  0.90669660    -0.16900
C1534       C  0.87167635  0.00029703  0.90932186    -0.14900
H1535       H  0.84516293  0.03390270  0.92813795     0.20500
H1536       H  0.81719473  0.43886106  0.98768101     0.16500
H1537       H  0.77905199  0.45205385  0.52027194     0.19000
H1538       H  0.88030462  0.01951659  0.89353822     0.12400
C1539       C  0.59594651  0.48606149  0.96223326     0.16200
C1540       C  0.61054019  0.48645161  0.99062831    -0.32800
C1541       C  0.63940930  0.48929320  0.98842118     0.20600
C1542       C  0.65301521  0.49194900  0.95928247     0.02800
C1543       C  0.63857035  0.49160682  0.93118222    -0.22500
C1544       C  0.60984604  0.48847023  0.93336296     0.12000
S1545       S  0.56063975  0.48218194  0.95904898    -0.06200
C1546       C  0.56495121  0.48357446  0.91848495    -0.09700
C1547       C  0.59230625  0.48703972  0.90839322    -0.26300
S1548       S  0.68749856  0.49464834  0.96084639    -0.03500
C1549       C  0.68388230  0.49175611  0.50134537    -0.16900
C1550       C  0.65714003  0.48913959  0.51290338    -0.14900
H1551       H  0.59973802  0.48421132  0.51330404     0.21200
H1552       H  0.64916502  0.49336180  0.90847694     0.16500
H1553       H  0.59901970  0.48830778  0.88387646     0.19000
H1554       H  0.65084888  0.48676681  0.53762246     0.12400
C1555       C  0.81884660  0.48743615  0.69079919     0.16200
C1556       C  0.84805992  0.49957903  0.70361309    -0.32800
C1557       C  0.85226355  0.48308223  0.72757685     0.20600
C1558       C  0.82860488  0.45540032  0.73762460     0.02800
C1559       C  0.79945498  0.44347269  0.72510009    -0.22500
C1560       C  0.79508040  0.46030911  0.70186446     0.12000
S1561       S  0.80862701  0.50419684  0.66224303    -0.06200
C1562       C  0.77193480  0.47486014  0.66626285    -0.09700
C1563       C  0.76803130  0.45318404  0.68815783    -0.26300
S1564       S  0.83792590  0.43872657  0.76678255    -0.03500
C1565       C  0.87394388  0.46976578  0.76637010    -0.16900
C1566       C  0.87845502  0.49163659  0.74423934    -0.14900
H1567       H  0.86651758  0.52114300  0.69567729     0.20500
H1568       H  0.78084353  0.42225198  0.73356258     0.16500
H1569       H  0.74647750  0.43346067  0.69394699     0.19000
H1570       H  0.89949869  0.51276388  0.74092839     0.12400
C1571       C  0.64658087  0.47563721  0.71467798     0.16200
C1572       C  0.63391206  0.47855221  0.74285434    -0.32800
C1573       C  0.60541248  0.47607309  0.74126206     0.20600
C1574       C  0.58997206  0.47093294  0.71287314     0.02800
C1575       C  0.60278596  0.46809935  0.68442475    -0.22500
C1576       C  0.63156111  0.47065808  0.68601106     0.12000
S1577       S  0.68087848  0.47790027  0.71232089    -0.06200
C1578       C  0.67555798  0.47238555  0.67206361    -0.09700
C1579       C  0.64824971  0.46889929  0.66122642    -0.26300
S1580       S  0.55540436  0.46865071  0.71661090    -0.03500
C1581       C  0.56213496  0.47463185  0.75676112    -0.16900
C1582       C  0.58965747  0.47818199  0.76634587    -0.14900
H1583       H  0.64579549  0.48255632  0.76515742     0.20500
H1584       H  0.59091805  0.46413001  0.66213175     0.16500
H1585       H  0.64105860  0.46530795  0.63672585     0.19000
H1586       H  0.59779035  0.48215764  0.79054307     0.12400
C1587       C  0.87482294  0.34603520  0.93325780     0.16200
C1588       C  0.85103910  0.31664697  0.93876231    -0.32800
C1589       C  0.83969488  0.30956606  0.96947947     0.20600
C1590       C  0.85191414  0.33055602  0.99400633     0.02800
C1591       C  0.87630855  0.36001903  0.98859510    -0.22500
C1592       C  0.88730503  0.36738494  0.95747958     0.12000
S1593       S  0.88941535  0.35914908  0.89695950    -0.06200
C1594       C  0.91272152  0.39412420  0.91406768    -0.09700
C1595       C  0.90950490  0.39525662  0.94659288    -0.26300
S1596       S  0.83322955  0.31763968  0.52914230    -0.03500
C1597       C  0.80845902  0.28399733  0.51015274    -0.16900
C1598       C  0.81502362  0.28290824  0.97857465    -0.14900
H1599       H  0.84103405  0.30030225  0.91960709     0.20500
H1600       H  0.88556420  0.37670817  0.00750744     0.16500
H1601       H  0.92189848  0.41541248  0.96115354     0.19000
H1602       H  0.80172490  0.26399541  0.96270569     0.12400
C1603       C  0.62077506  0.12181474  0.94962491     0.16200
C1604       C  0.63204196  0.14226789  0.97527984    -0.32800
C1605       C  0.66352041  0.15796093  0.98042126     0.20600
C1606       C  0.68283122  0.15373422  0.96062118     0.02800
C1607       C  0.67153209  0.13281983  0.93557160    -0.22500
C1608       C  0.64016869  0.11691334  0.93070179     0.12000
S1609       S  0.58364994  0.10189553  0.93789091    -0.06200
C1610       C  0.59452276  0.08645978  0.90767468    -0.09700
C1611       C  0.62520009  0.09630988  0.90700770    -0.26300
S1612       S  0.72033560  0.17625481  0.46916779    -0.03500
C1613       C  0.71006837  0.19105544  0.50036837    -0.16900
C1614       C  0.67907834  0.17915066  0.00370473    -0.14900
H1615       H  0.61702715  0.14612695  0.99023271     0.20500
H1616       H  0.68660715  0.12944078  0.92019620     0.16500
H1617       H  0.63616123  0.08964439  0.88929458     0.19000
H1618       H  0.66863379  0.18625223  0.02157067     0.12400
C1619       C  0.82233911  0.31850681  0.71517194     0.16200
C1620       C  0.83682371  0.33322272  0.74315642    -0.32800
C1621       C  0.86540451  0.35906604  0.74079045     0.20600
C1622       C  0.87936074  0.36999785  0.71188835     0.02800
C1623       C  0.86488723  0.35497179  0.68361298    -0.22500
C1624       C  0.83594522  0.32895925  0.68599676     0.12000
S1625       S  0.78728069  0.28724216  0.71373247    -0.06200
C1626       C  0.79050324  0.28777703  0.67323295    -0.09700
C1627       C  0.81768325  0.31119648  0.66160387    -0.26300
S1628       S  0.91413637  0.40238199  0.71486204    -0.03500
C1629       C  0.90934027  0.40073928  0.75536488    -0.16900
C1630       C  0.88240138  0.37640121  0.76559508    -0.14900
H1631       H  0.82610547  0.32501240  0.76588843     0.20500
H1632       H  0.87552188  0.36329031  0.66088089     0.16500
H1633       H  0.82365673  0.31504219  0.63681216     0.19000
H1634       H  0.87544870  0.37168991  0.79009481     0.12400
C1635       C  0.62257596  0.11042406  0.72072459     0.16200
C1636       C  0.64134948  0.12082596  0.69398367    -0.32800
C1637       C  0.65642591  0.15214479  0.68783777     0.20600
C1638       C  0.65275431  0.17208334  0.70740304     0.02800
C1639       C  0.63318603  0.16157228  0.73337713    -0.22500
C1640       C  0.61833839  0.13039566  0.73960226     0.12000
S1641       S  0.60477736  0.07389979  0.73429904    -0.06200
C1642       C  0.59132835  0.08575981  0.76546210    -0.09700
C1643       C  0.60001273  0.11628604  0.76493577    -0.26300
S1644       S  0.67573783  0.20943904  0.69863845    -0.03500
C1645       C  0.69026571  0.19826904  0.66794467    -0.16900
C1646       C  0.67761368  0.16708566  0.66464473    -0.14900
H1647       H  0.64499264  0.10538177  0.67936528     0.20500
H1648       H  0.63062281  0.17719832  0.74885396     0.16500
H1649       H  0.59418560  0.12779508  0.78287802     0.19000
H1650       H  0.68505382  0.15612630  0.64771202     0.12400
C1651       C  0.71747312  0.72059866  0.15102811     0.80500
N1652       N  0.74006047  0.74342608  0.16789347    -0.77800
C1653       C  0.76591017  0.76436158  0.15369308     0.82900
N1654       N  0.76891407  0.76274102  0.12199306    -0.77700
C1655       C  0.74631292  0.74011431  0.10463202     0.83000
N1656       N  0.72065795  0.71871561  0.11926544    -0.79500
C1657       C  0.73295290  0.71540786  0.02051818     0.80500
N1658       N  0.72836027  0.71657330  0.05207295    -0.77800
C1659       C  0.75023382  0.73900056  0.07028799     0.82900
N1660       N  0.77627372  0.76061734  0.05666986    -0.77700
C1661       C  0.78091060  0.75966426  0.02520785     0.83000
N1662       N  0.75929729  0.73679984  0.00734613    -0.79500
C1663       C  0.74648929  0.97440807  0.14984195     0.80500
N1664       N  0.72263132  0.97159292  0.16661044    -0.77800
C1665       C  0.69944142  0.97260145  0.15207988     0.82900
N1666       N  0.70002871  0.97601043  0.12006286    -0.77700
C1667       C  0.72397292  0.97859151  0.10303805     0.83000
N1668       N  0.74725283  0.97821048  0.11817741    -0.79500
C1669       C  0.75357158  0.99051892  0.02141695     0.80500
N1670       N  0.73220272  0.99343533  0.00554383    -0.77800
C1671       C  0.70739973  0.99062448  0.02052906     0.82900
N1672       N  0.70430177  0.98550853  0.05225352    -0.77700
C1673       C  0.72596057  0.98296241  0.06855293     0.83000
N1674       N  0.75033425  0.98508917  0.05291451    -0.79500
C1675       C  0.00134922  0.74326940  0.15274939     0.80500
N1676       N  0.99389224  0.74093981  0.12156949    -0.77800
C1677       C  0.99098123  0.71708474  0.10412793     0.82900
N1678       N  0.99478780  0.69525528  0.11817128    -0.77700
C1679       C  0.00204634  0.69728401  0.14925365     0.83000
N1680       N  0.00553740  0.72153038  0.16640744    -0.79500
C1681       C  0.97371417  0.73155718  0.02265228     0.80500
N1682       N  0.98136379  0.73593199  0.05395447    -0.77800
C1683       C  0.98308810  0.71385126  0.07037521     0.82900
N1684       N  0.97772037  0.68801159  0.05536000    -0.77700
C1685       C  0.97039913  0.68359728  0.02435551     0.83000
N1686       N  0.96825828  0.70535123  0.00808166    -0.79500
O1687       O  0.91937493  0.49892433  0.29542456    -0.87900
C1688       C  0.57361448  0.56621221  0.38311504     1.12100
O1689       O  0.95402534  0.97623739  0.33634658    -1.35700
O1690       O  0.55446003  0.57160714  0.30511109    -0.89400
O1691       O  0.89121227  0.94916393  0.30476853    -0.90000
O1692       O  0.95520285  0.94593910  0.26952430    -0.78900
O1693       O  0.98670649  0.53583944  0.30754392    -1.01000
C1694       C  0.54077250  0.97575217  0.27948148     1.22200
O1695       O  0.98682035  0.94609393  0.33692037    -1.35900
Mn1696     Mn  0.98547333  0.97732888  0.37160377     1.82100
O1697       O  0.51781098  0.97661180  0.27061623    -0.77900
O1698       O  0.57632103  0.54330055  0.29856980    -0.87300
C1699       C  0.54192377  0.98095259  0.39571650     1.13300
C1700       C  0.57287454  0.56554990  0.29114402     1.08000
O1701       O  0.95441558  0.94442850  0.40374499    -0.78900
O1702       O  0.51734546  0.50906076  0.33739575    -1.32600
O1703       O  0.92882704  0.91672674  0.36535920    -0.98100
C1704       C  0.98914202  0.89045882  0.29106888     1.06700
Mn1705     Mn  0.56049846  0.51228429  0.33600916     1.48600
O1706       O  0.96336965  0.88718693  0.29751916    -0.87300
Mn1707     Mn  0.91206029  0.93526943  0.33778008     1.49600
O1708       O  0.91397605  0.99958785  0.36607585    -0.91200
C1709       C  0.98899267  0.53354403  0.27927139     1.19900
C1710       C  0.89699924  0.97536463  0.38124412     1.12000
Mn1711     Mn  0.98641557  0.97728980  0.30233333     1.81000
O1712       O  0.54623927  0.97989195  0.36744490    -0.96300
Mn1713     Mn  0.94972719  0.51526916  0.33350354     1.49300
C1714       C  0.89650496  0.97291551  0.28990078     1.08500
Mn1715     Mn  0.52741984  0.94421701  0.33928306     1.49900
C1716       C  0.98668680  0.88983036  0.38311251     1.11400
O1717       O  0.92728329  0.91767535  0.30630100    -1.02100
O1718       O  0.57983750  0.54762396  0.36950385    -0.91800
C1719       C  0.93152730  0.92259819  0.27804219     1.22700
O1720       O  0.54572603  0.97675539  0.30784699    -1.02500
O1721       O  0.55087937  0.56880342  0.37583488    -0.89900
O1722       O  0.51211975  0.91297880  0.37667250    -0.89500
O1723       O  0.89556865  0.95014244  0.37521913    -0.89500
Mn1724     Mn  0.51978498  0.55172462  0.33850721     1.47900
O1725       O  0.51762477  0.97935973  0.40425497    -0.78000
C1726       C  0.93287225  0.91975292  0.39375134     1.15700
O1727       O  0.98759522  0.50956422  0.26940034    -0.76700
O1728       O  0.98272052  0.50809099  0.40438226    -0.76400
Mn1729     Mn  0.94733088  0.90265276  0.33446145     1.51100
O1730       O  0.51330752  0.90903242  0.30563688    -0.88700
O1731       O  0.98272786  0.53560890  0.36636329    -0.96200
O1732       O  0.96242757  0.88312200  0.36825753    -0.91300
C1733       C  0.98089717  0.53050950  0.39506805     1.13500
C1734       C  0.96989261  0.59258763  0.43212985     0.16200
C1735       C  0.46726560  0.61835188  0.43638411    -0.32800
C1736       C  0.96612635  0.62728516  0.46730323     0.20600
C1737       C  0.96704729  0.61098814  0.49300597     0.02800
C1738       C  0.96910125  0.58461158  0.48867941    -0.22500
C1739       C  0.97079338  0.57587701  0.45747584     0.12000
S1740       S  0.47344088  0.58002581  0.39633250    -0.06200
C1741       C  0.97645042  0.55166638  0.41507502    -0.09700
C1742       C  0.97444162  0.55190332  0.44778718    -0.26300
S1743       S  0.96754029  0.62721064  0.52863525    -0.03500
C1744       C  0.96684035  0.65622897  0.00840100    -0.16900
C1745       C  0.46564255  0.65296504  0.47589240    -0.14900
H1746       H  0.46707911  0.63144704  0.41638819     0.20500
H1747       H  0.97025436  0.57206849  0.50868244     0.16500
H1748       H  0.97601100  0.53598063  0.46339665     0.19000
H1749       H  0.46591330  0.66926181  0.45936357     0.12400
C1750       C  0.99228251  0.84363170  0.45221829     0.16200
C1751       C  0.50078395  0.83267316  0.47844623    -0.32800
C1752       C  0.98447697  0.80123723  0.48416409     0.20600
C1753       C  0.96072074  0.78169741  0.46460720     0.02800
C1754       C  0.95159003  0.79271926  0.43914025    -0.22500
C1755       C  0.96790580  0.82401955  0.43340935     0.12000
S1756       S  0.51072486  0.88043634  0.43928941    -0.06200
C1757       C  0.98507764  0.86922208  0.40848168    -0.09700
C1758       C  0.96335578  0.83861264  0.40871513    -0.26300
S1759       S  0.94564747  0.74417163  0.47323690    -0.03500
C1760       C  0.97116570  0.75462624  0.00399975    -0.16900
C1761       C  0.99025309  0.78580555  0.00728985    -0.14900
H1762       H  0.51989277  0.84785824  0.49312833     0.20500
H1763       H  0.93314978  0.77739675  0.42379289     0.16500
H1764       H  0.94582560  0.82735831  0.39096176     0.19000
H1765       H  0.50825685  0.79643417  0.02459887     0.12400
C1766       C  0.00561630  0.60828566  0.24106818     0.16200
C1767       C  0.01128290  0.63781506  0.23608633    -0.32800
C1768       C  0.00816795  0.64571660  0.20531898     0.20600
C1769       C  0.50033573  0.62529058  0.18031914     0.02800
C1770       C  0.49527931  0.59573847  0.18521597    -0.22500
C1771       C  0.49781259  0.58756736  0.21631891     0.12000
S1772       S  0.00571386  0.59416221  0.27721449    -0.06200
C1773       C  0.99493898  0.55963437  0.25934083    -0.09700
C1774       C  0.49194763  0.55942354  0.22665736    -0.26300
S1775       S  0.49586322  0.63904642  0.14515235    -0.03500
C1776       C  0.00418304  0.67239688  0.16461135    -0.16900
C1777       C  0.01057116  0.67268860  0.19647806    -0.14900
H1778       H  0.01684077  0.65364901  0.25562401     0.20500
H1779       H  0.48868603  0.57956978  0.16586908     0.16500
H1780       H  0.48496122  0.53971291  0.21157710     0.19000
H1781       H  0.01564173  0.69126344  0.21265186     0.12400
C1782       C  0.98300544  0.83687782  0.22340796     0.16200
C1783       C  0.97403376  0.81653986  0.19772053    -0.32800
C1784       C  0.99048497  0.80163445  0.19203366     0.20600
C1785       C  0.01465672  0.80664942  0.21116465     0.02800
C1786       C  0.02417338  0.82763562  0.23618593    -0.22500
C1787       C  0.00783368  0.84259132  0.24179270     0.12000
S1788       S  0.96457266  0.85531112  0.23602877    -0.06200
C1789       C  0.99095093  0.87120342  0.26603643    -0.09700
C1790       C  0.01280643  0.86265855  0.26593196    -0.26300
S1791       S  0.02990654  0.78433996  0.20236575    -0.03500
C1792       C  0.00392741  0.76853861  0.17211933    -0.16900
C1793       C  0.98454719  0.78008616  0.16913885    -0.14900
H1794       H  0.95461524  0.81192653  0.18334770     0.20500
H1795       H  0.04298466  0.83151675  0.25119240     0.16500
H1796       H  0.03061929  0.86974042  0.28343489     0.19000
H1797       H  0.96630834  0.77219500  0.15203960     0.12400
C1798       C  0.81835770  0.50396688  0.46600377     0.16200
C1799       C  0.83949744  0.51360421  0.44141346    -0.32800
C1800       C  0.85207971  0.99545200  0.43366715     0.20600
C1801       C  0.84415444  0.96887380  0.44978347     0.02800
C1802       C  0.82365356  0.95969378  0.47514965    -0.22500
C1803       C  0.81092328  0.97787026  0.48282753     0.12000
S1804       S  0.79817285  0.52112630  0.47630748    -0.06200
C1805       C  0.77977958  0.99324971  0.00401897    -0.09700
C1806       C  0.78903272  0.97185573  0.00519877    -0.26300
S1807       S  0.86019603  0.94884536  0.43477608    -0.03500
C1808       C  0.87784634  0.97675753  0.40667715    -0.16900
C1809       C  0.87166820  0.50028935  0.40932586    -0.14900
H1810       H  0.84509986  0.53385168  0.42810878     0.20500
H1811       H  0.81716705  0.93882327  0.48764742     0.16500
H1812       H  0.77902128  0.95206235  0.02023185     0.19000
H1813       H  0.88026888  0.51949304  0.39352349     0.12400
C1814       C  0.59594069  0.98603264  0.46222526     0.16200
C1815       C  0.61053718  0.98642746  0.49061980    -0.32800
C1816       C  0.63939983  0.98925424  0.48841019     0.20600
C1817       C  0.65299569  0.99188852  0.45926965     0.02800
C1818       C  0.63854726  0.99153974  0.43117000    -0.22500
C1819       C  0.60983072  0.98842107  0.43335343     0.12000
S1820       S  0.56064356  0.98217657  0.45904407    -0.06200
C1821       C  0.56494757  0.98355426  0.41847945    -0.09700
C1822       C  0.59229209  0.98699521  0.40838511    -0.26300
S1823       S  0.68747469  0.99457833  0.46083121    -0.03500
C1824       C  0.68390554  0.99179079  0.00133671    -0.16900
C1825       C  0.65716919  0.98918800  0.01289509    -0.14900
H1826       H  0.59977324  0.98427357  0.01329664     0.21200
H1827       H  0.64913487  0.99328021  0.40846359     0.16500
H1828       H  0.59899959  0.98825117  0.38386765     0.19000
H1829       H  0.65088965  0.98684228  0.03761665     0.12400
C1830       C  0.81885357  0.98746230  0.19080703     0.16200
C1831       C  0.84806391  0.99960254  0.20362684    -0.32800
C1832       C  0.85226680  0.98309147  0.22757458     0.20600
C1833       C  0.82861043  0.95539954  0.23760290     0.02800
C1834       C  0.79946255  0.94347441  0.22507307    -0.22500
C1835       C  0.79508871  0.96032406  0.20185212     0.12000
S1836       S  0.80863708  0.00423797  0.16226510    -0.06200
C1837       C  0.77194742  0.97489099  0.16626218    -0.09700
C1838       C  0.76804212  0.95320144  0.18814074    -0.26300
S1839       S  0.83793179  0.93871059  0.26674507    -0.03500
C1840       C  0.87394613  0.96975650  0.26635145    -0.16900
C1841       C  0.87845581  0.99164039  0.24423839    -0.14900
H1842       H  0.86652017  0.02117443  0.19570666     0.20500
H1843       H  0.78085237  0.92224512  0.23351989     0.16500
H1844       H  0.74648914  0.93346992  0.19391429     0.19000
H1845       H  0.89949651  0.01277389  0.24094196     0.12400
C1846       C  0.64655559  0.97558106  0.21467944     0.16200
C1847       C  0.63387099  0.97845795  0.24286187    -0.32800
C1848       C  0.60539233  0.97602611  0.24126345     0.20600
C1849       C  0.58998607  0.97096538  0.21286353     0.02800
C1850       C  0.60281560  0.96816910  0.18440928    -0.22500
C1851       C  0.63157077  0.97068212  0.18600164     0.12000
S1852       S  0.68083562  0.97780536  0.21232735    -0.06200
C1853       C  0.67555622  0.97238394  0.17205754    -0.09700
C1854       C  0.64827259  0.96895374  0.16121291    -0.26300
S1855       S  0.55544002  0.96873210  0.21659529    -0.03500
C1856       C  0.56213461  0.97462841  0.25675751    -0.16900
C1857       C  0.58962935  0.97811476  0.26635064    -0.14900
H1858       H  0.64572817  0.98240124  0.26517327     0.20500
H1859       H  0.59097549  0.96426400  0.16210758     0.16500
H1860       H  0.64110973  0.96542678  0.13670414     0.19000
H1861       H  0.59773802  0.98203320  0.29055574     0.12400
C1862       C  0.87479696  0.84603742  0.43324310     0.16200
C1863       C  0.85100355  0.81665329  0.43874582    -0.32800
C1864       C  0.83965378  0.80957628  0.46946156     0.20600
C1865       C  0.85187663  0.83056598  0.49398817     0.02800
C1866       C  0.87627923  0.86002459  0.48857863    -0.22500
C1867       C  0.88728151  0.86738668  0.45746490     0.12000
S1868       S  0.88939964  0.85914763  0.39694693    -0.06200
C1869       C  0.91271213  0.89412082  0.41405630    -0.09700
C1870       C  0.90949050  0.89525484  0.44658036    -0.26300
S1871       S  0.83318272  0.81765606  0.02914117    -0.03500
C1872       C  0.80840504  0.78401545  0.01015319    -0.16900
C1873       C  0.81497676  0.78292225  0.47855657    -0.14900
H1874       H  0.84099693  0.80030898  0.41959068     0.20500
H1875       H  0.88553773  0.87671323  0.50749096     0.16500
H1876       H  0.92188651  0.91540992  0.46114135     0.19000
H1877       H  0.80167587  0.76400926  0.46268874     0.12400
C1878       C  0.62074843  0.62182295  0.44962833     0.16200
C1879       C  0.63201601  0.64230791  0.47525587    -0.32800
C1880       C  0.66348905  0.65796805  0.48042848     0.20600
C1881       C  0.68279512  0.65367713  0.46068603     0.02800
C1882       C  0.67149339  0.63272840  0.43566675    -0.22500
C1883       C  0.64013444  0.61685793  0.43076357     0.12000
S1884       S  0.58363441  0.60194497  0.43785379    -0.06200
C1885       C  0.59450002  0.58644367  0.40769669    -0.09700
C1886       C  0.62516678  0.59623958  0.40708120    -0.26300
S1887       S  0.72029554  0.67621001  0.96924124    -0.03500
C1888       C  0.71002507  0.69105815  0.00039452    -0.16900
C1889       C  0.67904742  0.67918645  0.50368673    -0.14900
H1890       H  0.61700701  0.64621888  0.49016122     0.20500
H1891       H  0.68656423  0.62930091  0.42033467     0.16500
H1892       H  0.63612440  0.58952997  0.38940792     0.19000
H1893       H  0.66860710  0.68633865  0.52150709     0.12400
C1894       C  0.82235223  0.81849649  0.21517743     0.16200
C1895       C  0.83684139  0.83321198  0.24315977    -0.32800
C1896       C  0.86542042  0.85905623  0.24078937     0.20600
C1897       C  0.87937146  0.86998903  0.21188519     0.02800
C1898       C  0.86489342  0.85496295  0.18361173    -0.22500
C1899       C  0.83595243  0.82894998  0.18599986     0.12000
S1900       S  0.78729317  0.78723355  0.21374378    -0.06200
C1901       C  0.79050666  0.78777150  0.17324342    -0.09700
C1902       C  0.81768469  0.81118950  0.16160955    -0.26300
S1903       S  0.91414538  0.90237575  0.21485424    -0.03500
C1904       C  0.90935459  0.90073255  0.25535766    -0.16900
C1905       C  0.88241930  0.87639253  0.26559150    -0.14900
H1906       H  0.82612717  0.82500158  0.26589358     0.20500
H1907       H  0.87552321  0.86328266  0.16087774     0.16500
H1908       H  0.82365185  0.81503714  0.13681638     0.19000
H1909       H  0.87546991  0.87168117  0.29009218     0.12400
C1910       C  0.62252915  0.61043381  0.22072207     0.16200
C1911       C  0.64127452  0.62083641  0.19396016    -0.32800
C1912       C  0.65638586  0.65216243  0.18784700     0.20600
C1913       C  0.65277309  0.67210653  0.20746344     0.02800
C1914       C  0.63323272  0.66159700  0.23345905    -0.22500
C1915       C  0.61835118  0.63041379  0.23965132     0.12000
S1916       S  0.60469703  0.57389612  0.23426092    -0.06200
C1917       C  0.59131531  0.58576410  0.26547782    -0.09700
C1918       C  0.60004487  0.61630202  0.26499565    -0.26300
S1919       S  0.67579062  0.70946258  0.19872844    -0.03500
C1920       C  0.69025582  0.69828771  0.16797901    -0.16900
C1921       C  0.67755699  0.66710197  0.16463886    -0.14900
H1922       H  0.64487135  0.60538550  0.17930045     0.20500
H1923       H  0.63071608  0.67722723  0.24897512     0.16500
H1924       H  0.59426168  0.62781539  0.28297437     0.19000
H1925       H  0.68495397  0.65613639  0.14766589     0.12400
C1926       C  0.71747458  0.72061112  0.65100687     0.80500
N1927       N  0.74005546  0.74344435  0.66787260    -0.77800
C1928       C  0.76590332  0.76438528  0.65367346     0.82900
N1929       N  0.76891155  0.76276405  0.62197404    -0.77700
C1930       C  0.74631597  0.74013150  0.60461294     0.83000
N1931       N  0.72066356  0.71872785  0.61924543    -0.79500
C1932       C  0.73295734  0.71541473  0.52050343     0.80500
N1933       N  0.72836586  0.71658437  0.55205755    -0.77800
C1934       C  0.75023876  0.73901457  0.57027001     0.82900
N1935       N  0.77627789  0.76063032  0.55665012    -0.77700
C1936       C  0.78091409  0.75967357  0.52518835     0.83000
N1937       N  0.75930074  0.73680628  0.50732886    -0.79500
C1938       C  0.74650500  0.97442998  0.64984644     0.80500
N1939       N  0.72265508  0.97163198  0.66661705    -0.77800
C1940       C  0.69946480  0.97263901  0.65208549     0.82900
N1941       N  0.70004389  0.97602965  0.62006611    -0.77700
C1942       C  0.72398077  0.97859487  0.60303967     0.83000
N1943       N  0.74726107  0.97821501  0.61817943    -0.79500
C1944       C  0.75356721  0.99049591  0.52141420     0.80500
N1945       N  0.73219229  0.99340035  0.50553905    -0.77800
C1946       C  0.70738930  0.99058938  0.52052388     0.82900
N1947       N  0.70429727  0.98548578  0.55225057    -0.77700
C1948       C  0.72596153  0.98295052  0.56855218     0.83000
N1949       N  0.75033574  0.98507761  0.55291410    -0.79500
C1950       C  0.00132273  0.74326229  0.65274262     0.80500
N1951       N  0.99386825  0.74093525  0.62156207    -0.77800
C1952       C  0.99095413  0.71707884  0.60412042     0.82900
N1953       N  0.99475575  0.69524634  0.61816394    -0.77700
C1954       C  0.00201181  0.69727284  0.64924668     0.83000
N1955       N  0.00550559  0.72151997  0.66640058    -0.79500
C1956       C  0.97370462  0.73155883  0.52264002     0.80500
N1957       N  0.98134728  0.73593112  0.55394412    -0.77800
C1958       C  0.98306629  0.71384826  0.57036646     0.82900
N1959       N  0.97770051  0.68800939  0.55535116    -0.77700
C1960       C  0.97038665  0.68359769  0.52434498     0.83000
N1961       N  0.96825088  0.70535358  0.50806919    -0.79500
O1962       O  0.91937863  0.49893251  0.79541619    -0.87900
C1963       C  0.57362856  0.56622799  0.88309474     1.12100
O1964       O  0.95401721  0.97622449  0.83635708    -1.35700
O1965       O  0.55446945  0.57161317  0.80508746    -0.89400
O1966       O  0.89120879  0.94915319  0.80476811    -0.90000
O1967       O  0.95520058  0.94593080  0.76953414    -0.78900
O1968       O  0.98670883  0.53584152  0.80753300    -1.01000
C1969       C  0.54077816  0.97575484  0.77948838     1.22200
O1970       O  0.98681280  0.94608229  0.83693167    -1.35900
Mn1971     Mn  0.98546351  0.97731482  0.87161599     1.82100
O1972       O  0.51781433  0.97660947  0.77062204    -0.77900
O1973       O  0.57633190  0.54330731  0.79855401    -0.87300
C1974       C  0.54191679  0.98094655  0.89572353     1.13300
C1975       C  0.57288469  0.56555502  0.79112339     1.08000
O1976       O  0.95440324  0.94441325  0.90375294    -0.78900
O1977       O  0.51735522  0.50907294  0.83738165    -1.32600
O1978       O  0.92881333  0.91671026  0.86536728    -0.98100
C1979       C  0.98913843  0.89045256  0.79107726     1.06700
Mn1980     Mn  0.56050755  0.51229391  0.83599543     1.48600
O1981       O  0.96336551  0.88717898  0.79752783    -0.87300
Mn1982     Mn  0.91205085  0.93525610  0.83778471     1.49600
O1983       O  0.91396804  0.99957452  0.86608640    -0.91200
C1984       C  0.98899124  0.53354435  0.77926036     1.19900
C1985       C  0.89698530  0.97534928  0.88124876     1.12000
Mn1986     Mn  0.98641053  0.97727973  0.80234579     1.81000
O1987       O  0.54623451  0.97988709  0.86745238    -0.96300
Mn1988     Mn  0.94973188  0.51527908  0.83349458     1.49300
C1989       C  0.89650315  0.97290733  0.78990435     1.08500
Mn1990     Mn  0.52741975  0.94421364  0.83928813     1.49900
C1991       C  0.98667675  0.88981821  0.88312339     1.11400
O1992       O  0.92727732  0.91766415  0.80630745    -1.02100
O1993       O  0.57984991  0.54763640  0.86948808    -0.91800
C1994       C  0.93152378  0.92258974  0.77804911     1.22700
O1995       O  0.54572914  0.97675482  0.80785428    -1.02500
O1996       O  0.55089495  0.56882043  0.87581144    -0.89900
O1997       O  0.51211683  0.91297333  0.87667576    -0.89500
O1998       O  0.89555215  0.95012632  0.87522050    -0.89500
Mn1999     Mn  0.51979761  0.55173815  0.83848804     1.47900
O2000       O  0.51761502  0.97934853  0.90426019    -0.78000
C2001       C  0.93285928  0.91973792  0.89375961     1.15700
O2002       O  0.98759237  0.50956375  0.76939011    -0.76700
O2003       O  0.98272833  0.50810241  0.90437209    -0.76400
Mn2004     Mn  0.94732287  0.90264080  0.83446985     1.51100
O2005       O  0.51331290  0.90903169  0.80563972    -0.88700
O2006       O  0.98273438  0.53562174  0.86635332    -0.96200
O2007       O  0.96241787  0.88310925  0.86826723    -0.91300
C2008       C  0.98090301  0.53051989  0.89505809     1.13500
C2009       C  0.96988234  0.59258403  0.93212939     0.16200
C2010       C  0.46724556  0.61834471  0.93638459    -0.32800
C2011       C  0.96612166  0.62728062  0.96730906     0.20600
C2012       C  0.96705389  0.61098710  0.99300935     0.02800
C2013       C  0.96911076  0.58461269  0.98867844    -0.22500
C2014       C  0.97079487  0.57587731  0.95747299     0.12000
S2015       S  0.47341187  0.58001884  0.89632399    -0.06200
C2016       C  0.97644995  0.55167101  0.91506734    -0.09700
C2017       C  0.97444829  0.55190807  0.94778008    -0.26300
S2018       S  0.96755869  0.62721242  0.02864056    -0.03500
C2019       C  0.96683165  0.65623037  0.50839173    -0.16900
C2020       C  0.46564395  0.65296518  0.97589836    -0.14900
H2021       H  0.46704115  0.63143234  0.91639032     0.20500
H2022       H  0.97027365  0.57207288  0.00867931     0.16500
H2023       H  0.97602814  0.53598977  0.96338705     0.19000
H2024       H  0.46589807  0.66925496  0.95937126     0.12400
C2025       C  0.99227420  0.84362465  0.95223340     0.16200
C2026       C  0.50079157  0.83267723  0.97845298    -0.32800
C2027       C  0.98447419  0.80123227  0.98417941     0.20600
C2028       C  0.96071763  0.78169062  0.96462386     0.02800
C2029       C  0.95158384  0.79271051  0.93915762    -0.22500
C2030       C  0.96789734  0.82401073  0.93342559     0.12000
S2031       S  0.51072484  0.88043623  0.93929344    -0.06200
C2032       C  0.98506726  0.86921157  0.90849472    -0.09700
C2033       C  0.96334593  0.83860193  0.90873029    -0.26300
S2034       S  0.94564909  0.74416532  0.97325319    -0.03500
C2035       C  0.97116135  0.75462986  0.50398567    -0.16900
C2036       C  0.99025166  0.78580869  0.50727603    -0.14900
H2037       H  0.51990107  0.84786438  0.99313281     0.20500
H2038       H  0.93314373  0.77738654  0.92381098     0.16500
H2039       H  0.94581580  0.82734600  0.89097717     0.19000
H2040       H  0.50823957  0.79642518  0.52459286     0.12400
C2041       C  0.00559294  0.60827877  0.74105847     0.16200
C2042       C  0.01125079  0.63780521  0.73607814    -0.32800
C2043       C  0.00813428  0.64570592  0.70531114     0.20600
C2044       C  0.50033782  0.62529684  0.68030324     0.02800
C2045       C  0.49528308  0.59574527  0.68519963    -0.22500
C2046       C  0.49781724  0.58757454  0.71630246     0.12000
S2047       S  0.00569608  0.59415735  0.77720399    -0.06200
C2048       C  0.99493098  0.55963221  0.75932936    -0.09700
C2049       C  0.49195387  0.55943124  0.72664085    -0.26300
S2050       S  0.49586370  0.63905208  0.64513693    -0.03500
C2051       C  0.00414726  0.67238505  0.66460409    -0.16900
C2052       C  0.01053244  0.67267584  0.69647139    -0.14900
H2053       H  0.01680438  0.65363762  0.75561644     0.20500
H2054       H  0.48869038  0.57957680  0.66585270     0.16500
H2055       H  0.48496818  0.53972066  0.71156078     0.19000
H2056       H  0.01559903  0.69124900  0.71264594     0.12400
C2057       C  0.98300891  0.83688952  0.72340119     0.16200
C2058       C  0.97404157  0.81656142  0.69770524    -0.32800
C2059       C  0.99048112  0.80164296  0.69202411     0.20600
C2060       C  0.01463788  0.80663681  0.71116821     0.02800
C2061       C  0.02415120  0.82761363  0.73619789    -0.22500
C2062       C  0.00782287  0.84258179  0.74179932     0.12000
S2063       S  0.96458547  0.85533351  0.73601761    -0.06200
C2064       C  0.99094876  0.87120136  0.76604150    -0.09700
C2065       C  0.01279287  0.86264143  0.76594554    -0.26300
S2066       S  0.02987255  0.78431315  0.70237485    -0.03500
C2067       C  0.00390741  0.76853372  0.67211347    -0.16900
C2068       C  0.98454307  0.78009921  0.66912382    -0.14900
H2069       H  0.95463394  0.81196433  0.68332215     0.20500
H2070       H  0.04295033  0.83147766  0.75121475     0.16500
H2071       H  0.03059462  0.86970693  0.78345895     0.19000
H2072       H  0.96631363  0.77222281  0.65201478     0.12400
C2073       C  0.81838162  0.50401236  0.96600197     0.16200
C2074       C  0.83951524  0.51364185  0.94140578    -0.32800
C2075       C  0.85207682  0.99544827  0.93367651     0.20600
C2076       C  0.84412311  0.96885316  0.94977250     0.02800
C2077       C  0.82361168  0.95966956  0.97512900    -0.22500
C2078       C  0.81090148  0.97786130  0.98281898     0.12000
S2079       S  0.79819975  0.52117538  0.97630539    -0.06200
C2080       C  0.77977931  0.99323629  0.50401618    -0.09700
C2081       C  0.78905806  0.97186250  0.50521289    -0.26300
S2082       S  0.86014701  0.94881202  0.93475459    -0.03500
C2083       C  0.87782881  0.97674143  0.90667860    -0.16900
C2084       C  0.87167734  0.50031601  0.90931590    -0.14900
H2085       H  0.84511546  0.53388611  0.92809576     0.20500
H2086       H  0.81710329  0.93878625  0.98761112     0.16500
H2087       H  0.77906617  0.95207988  0.52026111     0.19000
H2088       H  0.88027592  0.51951606  0.89350852     0.12400
C2089       C  0.59593822  0.98604033  0.96223343     0.16200
C2090       C  0.61053387  0.98643233  0.99062746    -0.32800
C2091       C  0.63940549  0.98928037  0.98841832     0.20600
C2092       C  0.65301113  0.99193867  0.95927901     0.02800
C2093       C  0.63856374  0.99159321  0.93117980    -0.22500
C2094       C  0.60983783  0.98845206  0.93336260     0.12000
S2095       S  0.56063059  0.98215882  0.95905133    -0.06200
C2096       C  0.56494305  0.98355635  0.91848750    -0.09700
C2097       C  0.59229795  0.98702281  0.90839418    -0.26300
S2098       S  0.68749864  0.99464757  0.96084065    -0.03500
C2099       C  0.68389191  0.99174756  0.50132930    -0.16900
C2100       C  0.65716434  0.98916528  0.51288819    -0.14900
H2101       H  0.59978431  0.98428815  0.51328991     0.21200
H2102       H  0.64915847  0.99335113  0.90847411     0.16500
H2103       H  0.59901190  0.98829429  0.88387728     0.19000
H2104       H  0.65089286  0.98683961  0.53761132     0.12400
C2105       C  0.81886337  0.98749166  0.69082767     0.16200
C2106       C  0.84806764  0.99963780  0.70366449    -0.32800
C2107       C  0.85227351  0.98310677  0.72758710     0.20600
C2108       C  0.82862654  0.95539125  0.73757553     0.02800
C2109       C  0.79948418  0.94345889  0.72502796    -0.22500
C2110       C  0.79510646  0.96032728  0.70183211     0.12000
S2111       S  0.80864404  0.00428923  0.66231313    -0.06200
C2112       C  0.77196324  0.97491376  0.66626589    -0.09700
C2113       C  0.76806245  0.95320003  0.68811071    -0.26300
S2114       S  0.83795020  0.93868339  0.76669599    -0.03500
C2115       C  0.87395153  0.96975187  0.76634718    -0.16900
C2116       C  0.87845586  0.99165671  0.74426338    -0.14900
H2117       H  0.86651669  0.02122891  0.69577659     0.20500
H2118       H  0.78088025  0.92220998  0.73344391     0.16500
H2119       H  0.74651420  0.93344879  0.69385464     0.19000
H2120       H  0.89948744  0.01280635  0.74099761     0.12400
C2121       C  0.64659313  0.97565051  0.71468209     0.16200
C2122       C  0.63391024  0.97853292  0.74286337    -0.32800
C2123       C  0.60542115  0.97607754  0.74126750     0.20600
C2124       C  0.59000484  0.97099217  0.71287054     0.02800
C2125       C  0.60283326  0.96819201  0.68441743    -0.22500
C2126       C  0.63159719  0.97072543  0.68600759     0.12000
S2127       S  0.68088010  0.97789008  0.71232822    -0.06200
C2128       C  0.67558681  0.97243688  0.67206252    -0.09700
C2129       C  0.64829524  0.96898830  0.66122023    -0.26300
S2130       S  0.55544604  0.96872973  0.71660482    -0.03500
C2131       C  0.56214744  0.97464464  0.75676449    -0.16900
C2132       C  0.58965463  0.97816021  0.76635486    -0.14900
H2133       H  0.64577482  0.98249413  0.76517258     0.20500
H2134       H  0.59098407  0.96426528  0.66211839     0.16500
H2135       H  0.64112217  0.96543801  0.63671434     0.19000
H2136       H  0.59776895  0.98209378  0.79055821     0.12400
C2137       C  0.87479560  0.84602254  0.93326158     0.16200
C2138       C  0.85100921  0.81663577  0.93876918    -0.32800
C2139       C  0.83965427  0.80956402  0.96948354     0.20600
C2140       C  0.85186566  0.83056152  0.99400461     0.02800
C2141       C  0.87626126  0.86002289  0.98859044    -0.22500
C2142       C  0.88726864  0.86737934  0.95747795     0.12000
S2143       S  0.88940248  0.85912676  0.89696494    -0.06200
C2144       C  0.91270149  0.89410697  0.91406708    -0.09700
C2145       C  0.90947225  0.89524793  0.94658906    -0.26300
S2146       S  0.83319889  0.81765579  0.52912651    -0.03500
C2147       C  0.80840838  0.78402381  0.51013226    -0.16900
C2148       C  0.81498165  0.78290783  0.97858134    -0.14900
H2149       H  0.84101125  0.80028508  0.91961817     0.20500
H2150       H  0.88551064  0.87671753  0.00749809     0.16500
H2151       H  0.92185912  0.91540803  0.96114534     0.19000
H2152       H  0.80168891  0.76398867  0.96271738     0.12400
C2153       C  0.62075560  0.62184450  0.94960650     0.16200
C2154       C  0.63201946  0.64233016  0.97523370    -0.32800
C2155       C  0.66349042  0.65798072  0.98041930     0.20600
C2156       C  0.68279826  0.65368142  0.96068826     0.02800
C2157       C  0.67149996  0.63273335  0.93566814    -0.22500
C2158       C  0.64014267  0.61687091  0.93075324     0.12000
S2159       S  0.58364470  0.60197264  0.93782168    -0.06200
C2160       C  0.59451233  0.58646134  0.90767641    -0.09700
C2161       C  0.62517784  0.59625067  0.90707128    -0.26300
S2162       S  0.72029442  0.67621821  0.46922295    -0.03500
C2163       C  0.71002783  0.69106110  0.50038433    -0.16900
C2164       C  0.67904511  0.67919529  0.00368209    -0.14900
H2165       H  0.61700929  0.64624700  0.99013032     0.20500
H2166       H  0.68657214  0.62929880  0.92034562     0.16500
H2167       H  0.63613662  0.58953395  0.88940647     0.19000
H2168       H  0.66860328  0.68635296  0.02149503     0.12400
C2169       C  0.82233717  0.81851799  0.71516490     0.16200
C2170       C  0.83682559  0.83322723  0.74314987    -0.32800
C2171       C  0.86540961  0.85906532  0.74078466     0.20600
C2172       C  0.87936543  0.86999899  0.71188268     0.02800
C2173       C  0.86488783  0.85497945  0.68360637    -0.22500
C2174       C  0.83594245  0.82897171  0.68598949     0.12000
S2175       S  0.78727532  0.78725965  0.71372574    -0.06200
C2176       C  0.79049518  0.78779826  0.67322600    -0.09700
C2177       C  0.81767648  0.81121465  0.66159620    -0.26300
S2178       S  0.91414498  0.90237778  0.71485806    -0.03500
C2179       C  0.90935038  0.90072970  0.75536111    -0.16900
C2180       C  0.88240967  0.87639403  0.76559020    -0.14900
H2181       H  0.82610780  0.82501576  0.76588204     0.20500
H2182       H  0.87552195  0.86329926  0.66087424     0.16500
H2183       H  0.82364854  0.81506137  0.63680419     0.19000
H2184       H  0.87545697  0.87168099  0.79008987     0.12400
C2185       C  0.62255229  0.61043734  0.72070737     0.16200
C2186       C  0.64130733  0.62084223  0.69395266    -0.32800
C2187       C  0.65640475  0.65216625  0.68783014     0.20600
C2188       C  0.65277009  0.67210619  0.70743108     0.02800
C2189       C  0.63322074  0.66159377  0.73341916    -0.22500
C2190       C  0.61835261  0.63041278  0.73962048     0.12000
S2191       S  0.60473226  0.57390337  0.73425667    -0.06200
C2192       C  0.59132632  0.58576683  0.76545584    -0.09700
C2193       C  0.60003973  0.61630038  0.76496018    -0.26300
S2194       S  0.67577206  0.70946290  0.69868797    -0.03500
C2195       C  0.69025964  0.69829368  0.66795535    -0.16900
C2196       C  0.67758024  0.66710922  0.66462686    -0.14900
H2197       H  0.64492107  0.60539518  0.67930535     0.20500
H2198       H  0.63068670  0.67722096  0.74892309     0.16500
H2199       H  0.59424075  0.62781122  0.78292700     0.19000
H2200       H  0.68499300  0.65614829  0.64766545     0.12400
loop_ 
_geom_bond_atom_site_label_1 
_geom_bond_atom_site_label_2 
_geom_bond_distance 
_geom_bond_site_symmetry_2 
_ccdc_geom_bond_type 
C1            N2   1.354       .  A
C1            N6   1.361       .  A
C1          C270   1.470       .  S
N2            C3   1.354       .  A
C3            N4   1.355       .  A
C3          C251   1.472       .  S
N4            C5   1.361       .  A
C5            N6   1.364       .  A
C5            C9   1.470       .  S
C7            N8   1.360       .  A
C7           N12   1.357       .  A
C7          C238   1.470       .  S
N8            C9   1.361       .  A
C9           N10   1.360       .  A
N10          C11   1.356       .  A
C11          N12   1.358       .  A
C11         C222   1.475       .  S
C13          N14   1.352       .  A
C13          N18   1.352       .  A
C13         C187   1.463       .  S
N14          C15   1.358       .  A
C15          N16   1.365       .  A
C15         C203   1.477       .  S
N16          C17   1.366       .  A
C17          N18   1.359       .  A
C17          C23   1.472       .  S
C19          N20   1.352       .  A
C19          N24   1.355       .  A
C19         C155   1.470       .  S
N20          C21   1.357       .  A
C21          N22   1.362       .  A
C21         C174   1.474       .  S
N22          C23   1.364       .  A
C23          N24   1.364       .  A
C25          N26   1.360       .  A
C25          N30   1.360       .  A
C25         C142   1.468       .  S
N26          C27   1.358       .  A
C27          N28   1.360       .  A
C27          C33   1.469       .  S
N28          C29   1.355       .  A
C29          N30   1.359       .  A
C29         C126   1.479       .  S
C31          N32   1.365       .  A
C31          N36   1.360       .  A
C31         C110   1.478       .  S
N32          C33   1.365       .  A
C33          N34   1.354       .  A
N34          C35   1.350       .  A
C35          N36   1.358       .  A
C35          C94   1.470       .  S
O37         Mn63   2.092   1_565  S
O37         C614   1.271       .  A
C38         C235   1.471       .  S
C38          O71   1.270       .  A
C38          O68   1.272       .  A
O39         Mn46   2.172       .  S
O39         Mn57   2.112       .  S
O39         Mn61   2.170       .  S
O39        Mn613   2.109       .  S
O40         Mn74   2.090       .  S
O40          C50   1.270       .  A
O41         Mn57   2.086       .  S
O41          C64   1.270       .  A
O42         Mn61   2.105       .  S
O42          C69   1.252       .  A
O43         Mn63   1.973       .  S
O43       Mn1174   1.960       .  S
O43          C59   1.211       .  S
C44         C206   1.474       .  S
C44          O47   1.252       .  A
C44          O70   1.221       .  S
O45         Mn46   2.180       .  S
O45         Mn79   2.119       .  S
O45         Mn61   2.174       .  S
O45       Mn1165   2.124       .  S
Mn46         O51   2.129       .  S
Mn46       O1175   2.107       .  S
Mn46        O628   2.139       .  S
Mn46       O1702   2.178       .  S
O47       Mn1161   2.101   1_455  S
O48         Mn55   2.099       .  S
O48          C50   1.271       .  A
C49         C171   1.473       .  S
C49          O75   1.254       .  A
C49          O62   1.221       .  S
C50         C267   1.472       .  S
O51          C76   1.254       .  A
O52         Mn55   2.125       .  S
O52         Mn74   2.111       .  S
O52       Mn1696   2.178   1_445  S
O52       Mn1711   2.171   1_445  S
O53         Mn57   1.952       .  S
O53         Mn79   1.942       .  S
O53          C76   1.214       .  S
C54         C139   1.471       .  S
C54          O56   1.269       .  A
C54        O1180   1.273       .  A
Mn55         O68   2.097       .  S
Mn55        O620   1.964   1_545  S
Mn55        O612   1.961   1_545  S
O56         Mn79   2.086       .  S
Mn57         O73   2.098       .  S
Mn57         O67   1.963       .  S
O58        Mn613   2.101       .  S
O58          C60   1.273       .  A
C59         C123   1.476       .  S
C59          O77   1.254       .  A
C60         C158   1.477       .  S
C60          O73   1.272       .  A
Mn61       O1147   2.101       .  S
Mn61        O627   2.139       .  S
Mn61       O1702   2.171       .  S
O62         Mn65   1.964       .  S
O62        Mn605   1.961       .  S
Mn63        O608   2.101   1_545  S
Mn63        O589   2.109   1_545  S
Mn63         O81   2.019       .  S
C64         C190   1.469       .  S
C64         O587   1.271       .  A
Mn65         O72   2.104       .  S
Mn65         O80   2.102       .  S
Mn65       O1145   2.123   1_455  S
Mn65         O70   1.965       .  S
C66         C107   1.479       .  S
C66          O82   1.272       .  A
C66        O1172   1.272       .  A
O67         Mn79   1.962       .  S
O67          C69   1.219       .  S
C69         C254   1.471       .  S
O70        Mn605   1.964       .  S
O71         Mn74   2.090       .  S
O72        C1166   1.272   1_455  A
Mn74       O1181   2.022   1_455  S
Mn74       O1143   1.960   1_455  S
O75       Mn1146   2.107   1_455  S
C76         C219   1.472       .  S
O77        Mn611   2.140   1_545  S
O78        Mn596   2.139   1_545  S
O78          C83   1.256       .  A
Mn79         O82   2.101       .  S
O80        C1154   1.273   1_455  A
O81       Mn1174   2.022       .  S
O81          C83   1.237       .  A
C83          C91   1.468       .  S
C84          C89   1.388       .  A
C84        C1185   1.393       .  A
C84        S1190   1.683       .  A
C85        C1184   1.393       .  A
C85        C1186   1.391       .  A
C85          H96   1.084       .  S
C86          C87   1.387       .  A
C86        C1185   1.391       .  A
C86        C1195   1.366       .  A
C87          C88   1.408       .  A
C87          S93   1.706       .  A
C88          C89   1.405       .  A
C88          H97   1.083       .  S
C89          C92   1.382       .  A
S90        C1184   1.683       .  A
S90        C1191   1.724       .  A
C91          C92   1.387       .  A
C91        S1190   1.724       .  A
C92          H98   1.083       .  S
S93         C369   1.728       .  A
C94        C1470   1.380   1_554  A
C94         S368   1.728       .  A
C95        C1186   1.366       .  A
C95        C1469   1.380       .  A
C95          H99   1.083       .  S
C100        C105   1.386       .  A
C100       C1201   1.408       .  A
C100       S1206   1.715       .  A
C101       C1200   1.408   1_455  A
C101       C1202   1.408   1_455  A
C101        H112   1.083       .  S
C102        C103   1.387       .  A
C102       C1201   1.408       .  A
C102        C386   1.379       .  A
C103        C104   1.401       .  A
C103        S109   1.705       .  A
C104        C105   1.402       .  A
C104        H113   1.083       .  S
C105        C108   1.371       .  A
S106       C1200   1.715   1_455  A
S106       C1207   1.727   1_455  A
C107        C108   1.387       .  A
C107       S1206   1.727       .  A
C108        H114   1.083       .  S
S109        C385   1.723       .  A
C110        C111   1.390       .  A
C110        S384   1.723   1_554  A
C111        C377   1.379   1_554  A
C111       H1215   1.083       .  S
H115       C1211   1.083   1_455  S
C116        C117   1.398       .  A
C116       C1221   1.388       .  A
C116        S122   1.695       .  A
C117        C118   1.397       .  A
C117        H128   1.083       .  S
C118        C127   1.370       .  A
C118       C1219   1.386       .  A
C119        C120   1.409   1_455  A
C119       C1218   1.386       .  A
C119        S125   1.712   1_455  A
C120        C121   1.408       .  A
C120        H129   1.083       .  S
C121        C124   1.382       .  A
C121       C1216   1.388   1_655  A
S122        C123   1.724       .  A
C123       C1224   1.389       .  A
C124       C1223   1.389       .  A
C124        H130   1.083       .  S
S125       C1226   1.729   1_655  A
C126        C127   1.385       .  A
C126       S1225   1.729       .  A
C127        H131   1.083       .  S
C132        C137   1.387       .  A
C132        C133   1.403       .  A
C132        S138   1.710       .  A
C133        C134   1.404       .  A
C133        H144   1.083       .  S
C134        C143   1.372       .  A
C134        C135   1.387       .  A
C135        C136   1.400       .  A
C135        S141   1.706       .  A
C136        C137   1.401       .  A
C136        H145   1.083       .  S
C137        C140   1.369       .  A
S138        C139   1.724       .  A
C139        C140   1.385       .  A
C140        H146   1.083       .  S
S141        C142   1.720       .  A
C142        C143   1.387       .  A
C143        H147   1.083       .  S
C148        C149   1.400       .  A
C148        C703   1.387   1_545  A
C148        S154   1.705       .  A
C149        C700   1.401   1_545  A
C149        H160   1.083       .  S
C150        C151   1.386       .  A
C150        C699   1.401       .  A
C150        C709   1.369       .  A
C151        C152   1.406       .  A
C151        S157   1.713       .  A
C152        C153   1.407       .  A
C152        H161   1.083       .  S
C153        C698   1.387       .  A
C153        C431   1.376       .  A
S154        C980   1.720   1_545  A
C155        C156   1.388       .  A
C155        S979   1.720   1_554  A
C156        C428   1.376   1_554  A
C156        H162   1.083       .  S
S157        C158   1.727       .  A
C158        C709   1.386       .  A
C159        C700   1.369   1_545  A
C159        C708   1.386   1_545  A
C159        H163   1.083       .  S
C164        C169   1.386       .  A
C164        C165   1.408       .  A
C164        S170   1.716       .  A
C165        C166   1.409       .  A
C165        H451   1.083       .  S
C166        C167   1.387       .  A
C166        C450   1.378       .  A
C167        C168   1.394       .  A
C167        S173   1.696       .  A
C168        C169   1.395       .  A
C168        H177   1.083       .  S
C169        C172   1.363       .  A
S170        C171   1.726       .  A
C171        C172   1.383       .  A
C172        H178   1.084       .  S
S173        C449   1.721       .  A
C174        C175   1.391       .  A
C174        S448   1.721   1_554  A
C175        C441   1.378   1_554  A
C175        H179   1.083       .  S
H176        C440   1.083   1_554  S
C180        C185   1.388       .  A
C180        C181   1.404       .  A
C180        S186   1.709       .  A
C181        C182   1.404       .  A
C181        H192   1.083       .  S
C182        C191   1.374       .  A
C182        C183   1.388       .  A
C183        C184   1.398       .  A
C183        S189   1.700       .  A
C184        C185   1.398       .  A
C184        H193   1.083       .  S
C185        C188   1.367       .  A
S186        C187   1.722       .  A
C187        C188   1.381       .  A
C188        H194   1.083       .  S
S189        C190   1.721       .  A
C190        C191   1.388       .  A
C191        H195   1.083       .  S
C196        C201   1.387       .  A
C196        C197   1.397       .  A
C196        S202   1.698       .  A
C197        C198   1.397       .  A
C197        H208   1.083       .  S
C198        C207   1.366       .  A
C198        C199   1.386       .  A
C199        C200   1.409       .  A
C199        S205   1.716       .  A
C200        C201   1.409       .  A
C200        H209   1.083       .  S
C201        C204   1.380       .  A
S202        C203   1.723       .  A
C203        C204   1.391       .  A
C204        H210   1.083       .  S
S205        C206   1.727       .  A
C206        C207   1.384       .  A
C207        H211   1.083       .  S
C212        C217   1.388       .  A
C212        C213   1.396       .  A
C212        S218   1.694       .  A
C213        C214   1.396       .  A
C213        H224   1.083       .  S
C214        C223   1.367       .  A
C214        C215   1.386       .  A
C215        C216   1.408       .  A
C215        S496   1.712       .  A
C216        C217   1.407       .  A
C216        H225   1.083       .  S
C217        C220   1.380       .  A
S218        C219   1.722       .  A
C219        C220   1.389       .  A
C220        H226   1.083       .  S
S221        C222   1.728       .  A
S221        C490   1.712   1_554  A
C222        C498   1.384   1_554  A
C223        C497   1.384       .  A
C223        H227   1.083       .  S
C228        C233   1.387       .  A
C228        C229   1.405       .  A
C228        S234   1.712       .  A
C229        C230   1.406       .  A
C229        H240   1.083       .  S
C230        C239   1.375       .  A
C230        C231   1.387       .  A
C231        C232   1.399       .  A
C231        S512   1.704       .  A
C232        C233   1.399       .  A
C232        H241   1.083       .  S
C233        C236   1.367       .  A
S234        C235   1.725       .  A
C235        C236   1.384       .  A
C236        H242   1.083       .  S
S237        C238   1.720   1_556  A
S237        C506   1.704       .  A
C238        C514   1.388       .  A
C239        C513   1.388       .  A
C239        H243   1.083       .  S
C244        C249   1.387       .  A
C244        C245   1.393       .  A
C244        S250   1.697       .  A
C245        C246   1.395       .  A
C245        H256   1.083       .  S
C246        C255   1.361       .  A
C246        C247   1.386       .  A
C247        C248   1.408       .  A
C247        S253   1.716       .  A
C248        C249   1.409       .  A
C248        H257   1.083       .  S
C249        C252   1.376       .  A
S250        C251   1.719       .  A
C251        C252   1.391       .  A
C252        H258   1.083       .  S
S253        C254   1.726       .  A
C254        C255   1.382       .  A
C255        H259   1.084       .  S
C260        C265   1.387       .  A
C260        C261   1.405       .  A
C260        S266   1.712       .  A
C261        C262   1.406       .  A
C261        H272   1.083       .  S
C262        C271   1.376       .  A
C262        C263   1.388       .  A
C263        C264   1.400       .  A
C263        S269   1.703       .  A
C264        C265   1.400       .  A
C264        H273   1.083       .  S
C265        C268   1.369       .  A
S266        C267   1.724       .  A
C267        C268   1.386       .  A
C268        H274   1.083       .  S
S269        C270   1.722       .  A
C270        C271   1.387       .  A
C271        H275   1.083       .  S
C276        N277   1.354       .  A
C276        N281   1.361       .  A
C276        C545   1.470       .  S
N277        C278   1.354       .  A
C278        N279   1.355       .  A
C278        C526   1.472       .  S
N279        C280   1.361       .  A
C280        N281   1.364       .  A
C280        C284   1.470       .  S
C282        N283   1.360       .  A
C282        N287   1.357       .  A
C282        C513   1.470       .  S
N283        C284   1.361       .  A
C284        N285   1.360       .  A
N285        C286   1.356       .  A
C286        N287   1.358       .  A
C286        C497   1.475       .  S
C288        N289   1.352       .  A
C288        N293   1.352       .  A
C288        C462   1.463       .  S
N289        C290   1.358       .  A
C290        N291   1.365       .  A
C290        C478   1.477       .  S
N291        C292   1.366       .  A
C292        N293   1.359       .  A
C292        C298   1.472       .  S
C294        N295   1.352       .  A
C294        N299   1.355       .  A
C294        C430   1.470       .  S
N295        C296   1.357       .  A
C296        N297   1.362       .  A
C296        C449   1.474       .  S
N297        C298   1.364       .  A
C298        N299   1.364       .  A
C300        N301   1.360       .  A
C300        N305   1.360       .  A
C300        C417   1.468       .  S
N301        C302   1.358       .  A
C302        N303   1.360       .  A
C302        C308   1.469       .  S
N303        C304   1.355       .  A
C304        N305   1.359       .  A
C304        C401   1.479       .  S
C306        N307   1.365       .  A
C306        N311   1.360       .  A
C306        C385   1.478       .  S
N307        C308   1.365       .  A
C308        N309   1.354       .  A
N309        C310   1.350       .  A
C310        N311   1.358       .  A
C310        C369   1.469       .  S
O312       Mn338   2.092   1_565  S
O312        C889   1.271       .  A
C313        C510   1.471       .  S
C313        O346   1.270       .  A
C313        O343   1.272       .  A
O314       Mn321   2.172       .  S
O314       Mn332   2.112       .  S
O314       Mn336   2.170       .  S
O314       Mn888   2.109       .  S
O315       Mn349   2.090       .  S
O315        C325   1.270       .  A
O316       Mn332   2.086       .  S
O316        C339   1.270       .  A
O317       Mn336   2.105       .  S
O317        C344   1.252       .  A
O318      Mn1449   1.960       .  S
O318       Mn338   1.973       .  S
O318        C334   1.211       .  S
C319        C481   1.474       .  S
C319        O322   1.252       .  A
C319        O345   1.221       .  S
O320      Mn1440   2.124       .  S
O320       Mn321   2.180       .  S
O320       Mn354   2.119       .  S
O320       Mn336   2.174       .  S
Mn321      O1450   2.107       .  S
Mn321       O326   2.129       .  S
Mn321       O903   2.139       .  S
Mn321      O1977   2.178       .  S
O322      Mn1436   2.101   1_455  S
O323       Mn330   2.099       .  S
O323        C325   1.271       .  A
C324        C446   1.473       .  S
C324        O350   1.254       .  A
C324        O337   1.221       .  S
C325        C542   1.472       .  S
O326        C351   1.254       .  A
O327      Mn1971   2.178   1_445  S
O327       Mn330   2.125       .  S
O327       Mn349   2.111       .  S
O327      Mn1986   2.171   1_445  S
O328       Mn332   1.952       .  S
O328       Mn354   1.942       .  S
O328        C351   1.214       .  S
C329        C414   1.471       .  S
C329       O1455   1.273       .  A
C329        O331   1.269       .  A
Mn330       O343   2.097       .  S
Mn330       O895   1.964   1_545  S
Mn330       O887   1.961   1_545  S
O331       Mn354   2.086       .  S
Mn332       O348   2.098       .  S
Mn332       O342   1.963       .  S
O333       Mn888   2.101       .  S
O333        C335   1.273       .  A
C334        C398   1.476       .  S
C334        O352   1.254       .  A
C335        C433   1.477       .  S
C335        O348   1.272       .  A
Mn336      O1422   2.101       .  S
Mn336       O902   2.139       .  S
Mn336      O1977   2.171       .  S
O337       Mn880   1.961       .  S
O337       Mn340   1.964       .  S
Mn338       O883   2.101   1_545  S
Mn338       O864   2.109   1_545  S
Mn338       O356   2.019       .  S
C339        C465   1.469       .  S
C339        O862   1.271       .  A
Mn340       O347   2.104       .  S
Mn340       O355   2.102       .  S
Mn340      O1420   2.123   1_455  S
Mn340       O345   1.965       .  S
C341        C382   1.479       .  S
C341       O1447   1.272       .  A
C341        O357   1.272       .  A
O342       Mn354   1.962       .  S
O342        C344   1.219       .  S
C344        C529   1.471       .  S
O345       Mn880   1.964       .  S
O346       Mn349   2.090       .  S
O347       C1441   1.272   1_455  A
Mn349      O1456   2.022   1_455  S
Mn349      O1418   1.960   1_455  S
O350      Mn1421   2.107   1_455  S
C351        C494   1.472       .  S
O352       Mn886   2.139   1_545  S
O353       Mn871   2.139   1_545  S
O353        C358   1.256       .  A
Mn354       O357   2.101       .  S
O355       C1429   1.273   1_455  A
O356      Mn1449   2.022       .  S
O356        C358   1.237       .  A
C358        C366   1.468       .  S
C359        C364   1.388       .  A
C359       C1460   1.393       .  A
C359       S1465   1.683       .  A
C360       C1459   1.393       .  A
C360       C1461   1.391       .  A
C360        H371   1.084       .  S
C361       C1460   1.391       .  A
C361       C1470   1.366       .  A
C361        C362   1.387       .  A
C362        C363   1.408       .  A
C362        S368   1.706   1_556  A
C363        C364   1.405       .  A
C363        H372   1.083   1_556  S
C364        C367   1.382       .  A
S365       C1459   1.683       .  A
S365       C1466   1.724       .  A
C366        C367   1.387       .  A
C366       S1465   1.724       .  A
C367        H373   1.083       .  S
C369       C1195   1.380       .  A
C370       C1461   1.366       .  A
C370       C1194   1.380   1_556  A
C370        H374   1.083       .  S
C375        C380   1.386       .  A
C375       C1476   1.408       .  A
C375       S1481   1.715       .  A
C376       C1475   1.408   1_455  A
C376       C1477   1.408   1_455  A
C376        H387   1.083       .  S
C377       C1476   1.408       .  A
C377        C378   1.387       .  A
C378        C379   1.401       .  A
C378        S384   1.705       .  A
C379        C380   1.402       .  A
C379        H388   1.083       .  S
C380        C383   1.371       .  A
S381       C1475   1.715   1_455  A
S381       C1482   1.727   1_455  A
C382        C383   1.387       .  A
C382       S1481   1.727       .  A
C383        H389   1.083       .  S
C385        C386   1.390       .  A
C386       H1490   1.083       .  S
H390       C1486   1.083   1_455  S
C391       C1496   1.388       .  A
C391        C392   1.398       .  A
C391        S397   1.695       .  A
C392        C393   1.397       .  A
C392        H403   1.083       .  S
C393        C402   1.370       .  A
C393       C1494   1.386       .  A
C394       C1493   1.386       .  A
C394        C395   1.409   1_455  A
C394        S400   1.712   1_455  A
C395        C396   1.408       .  A
C395        H404   1.083       .  S
C396       C1491   1.388   1_655  A
C396        C399   1.382       .  A
S397        C398   1.724       .  A
C398       C1499   1.389       .  A
C399       C1498   1.389       .  A
C399        H405   1.083       .  S
S400       C1501   1.729   1_655  A
C401        C402   1.385       .  A
C401       S1500   1.729       .  A
C402        H406   1.083       .  S
C407        C412   1.387       .  A
C407        C408   1.403       .  A
C407        S413   1.710       .  A
C408        C409   1.404       .  A
C408        H419   1.083       .  S
C409        C418   1.372       .  A
C409        C410   1.387       .  A
C410        C411   1.400       .  A
C410        S416   1.706       .  A
C411        C412   1.401       .  A
C411        H420   1.083       .  S
C412        C415   1.369       .  A
S413        C414   1.724       .  A
C414        C415   1.385       .  A
C415        H421   1.083       .  S
S416        C417   1.720       .  A
C417        C418   1.387       .  A
C418        H422   1.083       .  S
C423        C978   1.387   1_545  A
C423        C424   1.400       .  A
C423        S429   1.705       .  A
C424        C975   1.401   1_545  A
C424        H435   1.083       .  S
C425        C974   1.401       .  A
C425        C984   1.369       .  A
C425        C426   1.386       .  A
C426        C427   1.406       .  A
C426        S432   1.713       .  A
C427        C428   1.407       .  A
C427        H436   1.083       .  S
C428        C973   1.387       .  A
S429        C705   1.720   1_546  A
C430        C431   1.388       .  A
C430        S704   1.720       .  A
C431        H437   1.083       .  S
S432        C433   1.727       .  A
C433        C984   1.386       .  A
C434        C975   1.369   1_545  A
C434        C983   1.386   1_545  A
C434        H438   1.083       .  S
C439        C444   1.386       .  A
C439        C440   1.408       .  A
C439        S445   1.716       .  A
C440        C441   1.409       .  A
C441        C442   1.387       .  A
C442        C443   1.395       .  A
C442        S448   1.696       .  A
C443        C444   1.395       .  A
C443        H452   1.083       .  S
C444        C447   1.363       .  A
S445        C446   1.726       .  A
C446        C447   1.383       .  A
C447        H453   1.084       .  S
C449        C450   1.391       .  A
C450        H454   1.083       .  S
C455        C460   1.388       .  A
C455        C456   1.404       .  A
C455        S461   1.709       .  A
C456        C457   1.404       .  A
C456        H467   1.083       .  S
C457        C466   1.374       .  A
C457        C458   1.388       .  A
C458        C459   1.398       .  A
C458        S464   1.700       .  A
C459        C460   1.398       .  A
C459        H468   1.083       .  S
C460        C463   1.367       .  A
S461        C462   1.722       .  A
C462        C463   1.381       .  A
C463        H469   1.083       .  S
S464        C465   1.721       .  A
C465        C466   1.388       .  A
C466        H470   1.083       .  S
C471        C476   1.387       .  A
C471        C472   1.397       .  A
C471        S477   1.698       .  A
C472        C473   1.397       .  A
C472        H483   1.083       .  S
C473        C482   1.366       .  A
C473        C474   1.386       .  A
C474        C475   1.409       .  A
C474        S480   1.716       .  A
C475        C476   1.409       .  A
C475        H484   1.083       .  S
C476        C479   1.380       .  A
S477        C478   1.723       .  A
C478        C479   1.391       .  A
C479        H485   1.083       .  S
S480        C481   1.727       .  A
C481        C482   1.384       .  A
C482        H486   1.083       .  S
C487        C492   1.388       .  A
C487        C488   1.396       .  A
C487        S493   1.694       .  A
C488        C489   1.396       .  A
C488        H499   1.083       .  S
C489        C498   1.367       .  A
C489        C490   1.386       .  A
C490        C491   1.408       .  A
C491        C492   1.408       .  A
C491        H500   1.083   1_556  S
C492        C495   1.380       .  A
S493        C494   1.722       .  A
C494        C495   1.389       .  A
C495        H501   1.083       .  S
S496        C497   1.728       .  A
C498        H502   1.083       .  S
C503        C508   1.387       .  A
C503        C504   1.405       .  A
C503        S509   1.712       .  A
C504        C505   1.406       .  A
C504        H515   1.083       .  S
C505        C514   1.375   1_556  A
C505        C506   1.387       .  A
C506        C507   1.399       .  A
C507        C508   1.399       .  A
C507        H516   1.083       .  S
C508        C511   1.367       .  A
S509        C510   1.725       .  A
C510        C511   1.384       .  A
C511        H517   1.083       .  S
S512        C513   1.720       .  A
C514        H518   1.083       .  S
C519        C524   1.387       .  A
C519        C520   1.393       .  A
C519        S525   1.697       .  A
C520        C521   1.395       .  A
C520        H531   1.083       .  S
C521        C530   1.361       .  A
C521        C522   1.386       .  A
C522        C523   1.408       .  A
C522        S528   1.717       .  A
C523        C524   1.409       .  A
C523        H532   1.083       .  S
C524        C527   1.376       .  A
S525        C526   1.719       .  A
C526        C527   1.391       .  A
C527        H533   1.083       .  S
S528        C529   1.726       .  A
C529        C530   1.382       .  A
C530        H534   1.084       .  S
C535        C540   1.387       .  A
C535        C536   1.405       .  A
C535        S541   1.712       .  A
C536        C537   1.406       .  A
C536        H547   1.083       .  S
C537        C546   1.376       .  A
C537        C538   1.388       .  A
C538        C539   1.400       .  A
C538        S544   1.703       .  A
C539        C540   1.400       .  A
C539        H548   1.083       .  S
C540        C543   1.369       .  A
S541        C542   1.724       .  A
C542        C543   1.386       .  A
C543        H549   1.083       .  S
S544        C545   1.722       .  A
C545        C546   1.387       .  A
C546        H550   1.083       .  S
C551        N552   1.354       .  A
C551        N556   1.361       .  A
C551        C820   1.470       .  S
N552        C553   1.354       .  A
C553        N554   1.355       .  A
C553        C801   1.472       .  S
N554        C555   1.361       .  A
C555        N556   1.364       .  A
C555        C559   1.470       .  S
C557        N558   1.360       .  A
C557        N562   1.357       .  A
C557        C788   1.470       .  S
N558        C559   1.361       .  A
C559        N560   1.360       .  A
N560        C561   1.356       .  A
C561        N562   1.358       .  A
C561        C772   1.475       .  S
C563        N564   1.353       .  A
C563        N568   1.352       .  A
C563        C737   1.463       .  S
N564        C565   1.358       .  A
C565        N566   1.365       .  A
C565        C753   1.477       .  S
N566        C567   1.366       .  A
C567        N568   1.359       .  A
C567        C573   1.472       .  S
C569        N570   1.352       .  A
C569        N574   1.355       .  A
C569        C705   1.470       .  S
N570        C571   1.357       .  A
C571        N572   1.362       .  A
C571        C724   1.474       .  S
N572        C573   1.364       .  A
C573        N574   1.364       .  A
C575        N576   1.360       .  A
C575        N580   1.360       .  A
C575        C692   1.468       .  S
N576        C577   1.358       .  A
C577        N578   1.360       .  A
C577        C583   1.469       .  S
N578        C579   1.355       .  A
C579        N580   1.359       .  A
C579        C676   1.479       .  S
C581        N582   1.365       .  A
C581        N586   1.360       .  A
C581        C660   1.478       .  S
N582        C583   1.365       .  A
C583        N584   1.354       .  A
N584        C585   1.350       .  A
C585        N586   1.358       .  A
C585        C644   1.470       .  S
O587       Mn613   2.092       .  S
C588        C785   1.471       .  S
C588        O621   1.270       .  A
C588        O618   1.272       .  A
O589       Mn596   2.172       .  S
O589       Mn607   2.112       .  S
O589       Mn611   2.170       .  S
O590       Mn624   2.090       .  S
O590        C600   1.270       .  A
O591       Mn607   2.086       .  S
O591        C614   1.270       .  A
O592       Mn611   2.105       .  S
O592        C619   1.252       .  A
O593      Mn1724   1.960       .  S
O593       Mn613   1.973       .  S
O593        C609   1.211       .  S
C594        C756   1.474       .  S
C594        O597   1.252       .  A
C594        O620   1.221       .  S
O595      Mn1715   2.124       .  S
O595       Mn596   2.180       .  S
O595       Mn629   2.119       .  S
O595       Mn611   2.174       .  S
Mn596      O1725   2.107       .  S
Mn596       O601   2.129       .  S
Mn596      O1152   2.178   1_565  S
O597      Mn1711   2.101   1_455  S
O598       Mn605   2.099       .  S
O598        C600   1.271       .  A
C599        C721   1.473       .  S
C599        O625   1.254       .  A
C599        O612   1.221       .  S
C600        C817   1.472       .  S
O601        C626   1.254       .  A
O602      Mn1146   2.178   1_455  S
O602       Mn605   2.125       .  S
O602       Mn624   2.111       .  S
O602      Mn1161   2.171   1_455  S
O603       Mn607   1.952       .  S
O603       Mn629   1.942       .  S
O603        C626   1.214       .  S
C604        C689   1.471       .  S
C604       O1730   1.273       .  A
C604        O606   1.269       .  A
Mn605       O618   2.097       .  S
O606       Mn629   2.086       .  S
Mn607       O623   2.098       .  S
Mn607       O617   1.963       .  S
O608        C610   1.273       .  A
C609        C673   1.476       .  S
C609        O627   1.254       .  A
C610        C708   1.477       .  S
C610        O623   1.272       .  A
Mn611      O1697   2.101       .  S
Mn611      O1152   2.171   1_565  S
O612       Mn615   1.964       .  S
Mn613       O631   2.019       .  S
C614        C740   1.469       .  S
Mn615       O622   2.104       .  S
Mn615       O630   2.102       .  S
Mn615      O1695   2.124   1_455  S
Mn615       O620   1.965       .  S
C616        C657   1.479       .  S
C616       O1722   1.272       .  A
C616        O632   1.272       .  A
O617       Mn629   1.962       .  S
O617        C619   1.219       .  S
C619        C804   1.471       .  S
O621       Mn624   2.090       .  S
O622       C1716   1.272   1_455  A
Mn624      O1731   2.022   1_455  S
Mn624      O1693   1.960   1_455  S
O625      Mn1696   2.107   1_455  S
C626        C769   1.472       .  S
O628        C633   1.256       .  A
Mn629       O632   2.101       .  S
O630       C1704   1.273   1_455  A
O631      Mn1724   2.022       .  S
O631        C633   1.237       .  A
C633        C641   1.468       .  S
C634        C639   1.388       .  A
C634       C1735   1.393       .  A
C634       S1740   1.683       .  A
C635       C1734   1.393       .  A
C635       C1736   1.391       .  A
C635        H646   1.084       .  S
C636       C1735   1.391       .  A
C636       C1745   1.366       .  A
C636        C637   1.387       .  A
C637        C638   1.408       .  A
C637        S643   1.706       .  A
C638        C639   1.405       .  A
C638        H647   1.083       .  S
C639        C642   1.382       .  A
S640       C1734   1.683       .  A
S640       C1741   1.724       .  A
C641        C642   1.387       .  A
C641       S1740   1.724       .  A
C642        H648   1.083       .  S
S643        C919   1.728       .  A
C644       C2020   1.380   1_554  A
C644        S918   1.728       .  A
C645       C1736   1.366       .  A
C645       C2019   1.380       .  A
C645        H649   1.083       .  S
C650        C655   1.386       .  A
C650       C1751   1.408       .  A
C650       S1756   1.715       .  A
C651       C1750   1.408   1_455  A
C651       C1752   1.408   1_455  A
C651        H662   1.083       .  S
C652       C1751   1.408       .  A
C652        C936   1.379       .  A
C652        C653   1.387       .  A
C653        C654   1.401       .  A
C653        S659   1.705       .  A
C654        C655   1.402       .  A
C654        H663   1.083       .  S
C655        C658   1.371       .  A
S656       C1750   1.715   1_455  A
S656       C1757   1.727   1_455  A
C657        C658   1.387       .  A
C657       S1756   1.727       .  A
C658        H664   1.083       .  S
S659        C935   1.723       .  A
C660        C661   1.390       .  A
C660        S934   1.723   1_554  A
C661        C927   1.379   1_554  A
C661       H1765   1.083       .  S
H665       C1761   1.083   1_455  S
C666       C1771   1.388       .  A
C666        C667   1.398       .  A
C666        S672   1.695       .  A
C667        C668   1.397       .  A
C667        H678   1.083       .  S
C668        C677   1.370       .  A
C668       C1769   1.386       .  A
C669       C1768   1.386       .  A
C669        C670   1.409   1_455  A
C669        S675   1.712   1_455  A
C670        C671   1.408       .  A
C670        H679   1.083       .  S
C671       C1766   1.388   1_655  A
C671        C674   1.382       .  A
S672        C673   1.724       .  A
C673       C1774   1.389       .  A
C674       C1773   1.389       .  A
C674        H680   1.083       .  S
S675       C1776   1.729   1_655  A
C676        C677   1.385       .  A
C676       S1775   1.729       .  A
C677        H681   1.083       .  S
C682        C687   1.387       .  A
C682        C683   1.403       .  A
C682        S688   1.710       .  A
C683        C684   1.404       .  A
C683        H694   1.083       .  S
C684        C693   1.372       .  A
C684        C685   1.387       .  A
C685        C686   1.400       .  A
C685        S691   1.706       .  A
C686        C687   1.401       .  A
C686        H695   1.083       .  S
C687        C690   1.369       .  A
S688        C689   1.724       .  A
C689        C690   1.385       .  A
C690        H696   1.083       .  S
S691        C692   1.720       .  A
C692        C693   1.387       .  A
C693        H697   1.083       .  S
C698        C699   1.400       .  A
C698        S704   1.705       .  A
C699        H710   1.083       .  S
C700        C701   1.386       .  A
C701        C702   1.406       .  A
C701        S707   1.713       .  A
C702        C703   1.407       .  A
C702        H711   1.083       .  S
C703        C981   1.376       .  A
C705        C706   1.388       .  A
C706        C978   1.376   1_554  A
C706        H712   1.083       .  S
S707        C708   1.727       .  A
C709        H713   1.083       .  S
C714        C719   1.386       .  A
C714        C715   1.408       .  A
C714        S720   1.716       .  A
C715        C716   1.409       .  A
C715       H1001   1.083       .  S
C716       C1000   1.378       .  A
C716        C717   1.387       .  A
C717        C718   1.394       .  A
C717        S723   1.696       .  A
C718        C719   1.395       .  A
C718        H727   1.083       .  S
C719        C722   1.363       .  A
S720        C721   1.726       .  A
C721        C722   1.383       .  A
C722        H728   1.084       .  S
S723        C999   1.721       .  A
C724        C725   1.391       .  A
C724        S998   1.721   1_554  A
C725        C991   1.378   1_554  A
C725        H729   1.083       .  S
H726        C990   1.083   1_554  S
C730        C735   1.388       .  A
C730        C731   1.404       .  A
C730        S736   1.709   1_565  A
C731        C732   1.404       .  A
C731        H742   1.083   1_565  S
C732        C741   1.374       .  A
C732        C733   1.388       .  A
C733        C734   1.398       .  A
C733        S739   1.700       .  A
C734        C735   1.398       .  A
C734        H743   1.083       .  S
C735        C738   1.367       .  A
S736        C737   1.722   1_545  A
C737        C738   1.381       .  A
C738        H744   1.083       .  S
S739        C740   1.721       .  A
C740        C741   1.388       .  A
C741        H745   1.083   1_565  S
C746        C751   1.387       .  A
C746        C747   1.397       .  A
C746        S752   1.698       .  A
C747        C748   1.397       .  A
C747        H758   1.083       .  S
C748        C757   1.366       .  A
C748        C749   1.386       .  A
C749        C750   1.409       .  A
C749        S755   1.716       .  A
C750        C751   1.409       .  A
C750        H759   1.083       .  S
C751        C754   1.380       .  A
S752        C753   1.723       .  A
C753        C754   1.391       .  A
C754        H760   1.083       .  S
S755        C756   1.727       .  A
C756        C757   1.384       .  A
C757        H761   1.083       .  S
C762        C767   1.388       .  A
C762        C763   1.396       .  A
C762        S768   1.694       .  A
C763        C764   1.396       .  A
C763        H774   1.083       .  S
C764        C773   1.367       .  A
C764        C765   1.386       .  A
C765        C766   1.408       .  A
C765       S1046   1.712       .  A
C766        C767   1.408       .  A
C766        H775   1.083       .  S
C767        C770   1.380       .  A
S768        C769   1.722       .  A
C769        C770   1.389       .  A
C770        H776   1.083       .  S
S771       C1040   1.712   1_554  A
S771        C772   1.728       .  A
C772       C1048   1.384   1_554  A
C773       C1047   1.384       .  A
C773        H777   1.083       .  S
C778        C783   1.387       .  A
C778        C779   1.405       .  A
C778        S784   1.712       .  A
C779        C780   1.406       .  A
C779        H790   1.083       .  S
C780        C789   1.375       .  A
C780        C781   1.387       .  A
C781        C782   1.399       .  A
C781       S1062   1.704       .  A
C782        C783   1.399       .  A
C782        H791   1.083       .  S
C783        C786   1.367       .  A
S784        C785   1.725       .  A
C785        C786   1.384       .  A
C786        H792   1.083       .  S
S787       C1056   1.704       .  A
S787        C788   1.720   1_556  A
C788       C1064   1.388       .  A
C789       C1063   1.388       .  A
C789        H793   1.083       .  S
C794        C799   1.387       .  A
C794        C795   1.393       .  A
C794        S800   1.697       .  A
C795        C796   1.395       .  A
C795        H806   1.083       .  S
C796        C805   1.361       .  A
C796        C797   1.386       .  A
C797        C798   1.408       .  A
C797        S803   1.717       .  A
C798        C799   1.409       .  A
C798        H807   1.083       .  S
C799        C802   1.376       .  A
S800        C801   1.719       .  A
C801        C802   1.391       .  A
C802        H808   1.083       .  S
S803        C804   1.726       .  A
C804        C805   1.382       .  A
C805        H809   1.084       .  S
C810        C815   1.387       .  A
C810        C811   1.405       .  A
C810        S816   1.712       .  A
C811        C812   1.406       .  A
C811        H822   1.083       .  S
C812        C821   1.376       .  A
C812        C813   1.388       .  A
C813        C814   1.400       .  A
C813        S819   1.703       .  A
C814        C815   1.400       .  A
C814        H823   1.083       .  S
C815        C818   1.369       .  A
S816        C817   1.724       .  A
C817        C818   1.386       .  A
C818        H824   1.083       .  S
S819        C820   1.722       .  A
C820        C821   1.387       .  A
C821        H825   1.083       .  S
C826        N827   1.354       .  A
C826        N831   1.361       .  A
C826       C1095   1.470       .  S
N827        C828   1.354       .  A
C828        N829   1.355       .  A
C828       C1076   1.472       .  S
N829        C830   1.361       .  A
C830        N831   1.364       .  A
C830        C834   1.470       .  S
C832        N833   1.360       .  A
C832        N837   1.357       .  A
C832       C1063   1.470       .  S
N833        C834   1.361       .  A
C834        N835   1.360       .  A
N835        C836   1.356       .  A
C836        N837   1.358       .  A
C836       C1047   1.475       .  S
C838        N839   1.353       .  A
C838        N843   1.352       .  A
C838       C1012   1.463       .  S
N839        C840   1.358       .  A
C840        N841   1.365       .  A
C840       C1028   1.477       .  S
N841        C842   1.366       .  A
C842        N843   1.359       .  A
C842        C848   1.472       .  S
C844        N845   1.352       .  A
C844        N849   1.355       .  A
C844        C980   1.470       .  S
N845        C846   1.357       .  A
C846        N847   1.362       .  A
C846        C999   1.474       .  S
N847        C848   1.364       .  A
C848        N849   1.364       .  A
C850        N851   1.360       .  A
C850        N855   1.360       .  A
C850        C967   1.468       .  S
N851        C852   1.358       .  A
C852        N853   1.360       .  A
C852        C858   1.469       .  S
N853        C854   1.355       .  A
C854        N855   1.359       .  A
C854        C951   1.479       .  S
C856        N857   1.365       .  A
C856        N861   1.360       .  A
C856        C935   1.478       .  S
N857        C858   1.365       .  A
C858        N859   1.354       .  A
N859        C860   1.350       .  A
C860        N861   1.358       .  A
C860        C919   1.470       .  S
O862       Mn888   2.092       .  S
C863       C1060   1.471       .  S
C863        O896   1.270       .  A
C863        O893   1.272       .  A
O864       Mn871   2.172       .  S
O864       Mn882   2.112       .  S
O864       Mn886   2.170       .  S
O865       Mn899   2.090       .  S
O865        C875   1.270       .  A
O866       Mn882   2.086       .  S
O866        C889   1.270       .  A
O867       Mn886   2.105       .  S
O867        C894   1.252       .  A
O868      Mn1999   1.960       .  S
O868       Mn888   1.973       .  S
O868        C884   1.211       .  S
C869       C1031   1.474       .  S
C869        O872   1.252       .  A
C869        O895   1.221       .  S
O870      Mn1990   2.124       .  S
O870       Mn871   2.180       .  S
O870       Mn904   2.119       .  S
O870       Mn886   2.174       .  S
Mn871      O2000   2.107       .  S
Mn871       O876   2.129       .  S
Mn871      O1427   2.178   1_565  S
O872      Mn1986   2.101   1_455  S
O873       Mn880   2.099       .  S
O873        C875   1.271       .  A
C874        C996   1.473       .  S
C874        O900   1.254       .  A
C874        O887   1.221       .  S
C875       C1092   1.472       .  S
O876        C901   1.254       .  A
O877      Mn1421   2.178   1_455  S
O877       Mn880   2.125       .  S
O877       Mn899   2.111       .  S
O877      Mn1436   2.171   1_455  S
O878       Mn882   1.952       .  S
O878       Mn904   1.942       .  S
O878        C901   1.214       .  S
C879        C964   1.471       .  S
C879       O2005   1.273       .  A
C879        O881   1.269       .  A
Mn880       O893   2.097       .  S
O881       Mn904   2.086       .  S
Mn882       O898   2.098       .  S
Mn882       O892   1.962       .  S
O883        C885   1.273       .  A
C884        C948   1.476       .  S
C884        O902   1.254       .  A
C885        C983   1.477       .  S
C885        O898   1.272       .  A
Mn886      O1972   2.101       .  S
Mn886      O1427   2.171   1_565  S
O887       Mn890   1.964       .  S
Mn888       O906   2.019       .  S
C889       C1015   1.469       .  S
Mn890       O897   2.104       .  S
Mn890       O905   2.102       .  S
Mn890      O1970   2.124   1_455  S
Mn890       O895   1.965       .  S
C891        C932   1.479       .  S
C891       O1997   1.272       .  A
C891        O907   1.272       .  A
O892       Mn904   1.962       .  S
O892        C894   1.219       .  S
C894       C1079   1.471       .  S
O896       Mn899   2.090       .  S
O897       C1991   1.272   1_455  A
Mn899      O2006   2.022   1_455  S
Mn899      O1968   1.960   1_455  S
O900      Mn1971   2.107   1_455  S
C901       C1044   1.472       .  S
O903        C908   1.256       .  A
Mn904       O907   2.101       .  S
O905       C1979   1.273   1_455  A
O906      Mn1999   2.022       .  S
O906        C908   1.237       .  A
C908        C916   1.468       .  S
C909        C914   1.388       .  A
C909       C2010   1.393       .  A
C909       S2015   1.683       .  A
C910       C2009   1.393       .  A
C910       C2011   1.391       .  A
C910        H921   1.084       .  S
C911       C2010   1.391       .  A
C911       C2020   1.366       .  A
C911        C912   1.387       .  A
C912        C913   1.408       .  A
C912        S918   1.706   1_556  A
C913        C914   1.405       .  A
C913        H922   1.083   1_556  S
C914        C917   1.382       .  A
S915       C2009   1.683       .  A
S915       C2016   1.724       .  A
C916        C917   1.387       .  A
C916       S2015   1.724       .  A
C917        H923   1.083       .  S
C919       C1745   1.380       .  A
C920       C2011   1.366       .  A
C920       C1744   1.380   1_556  A
C920        H924   1.083       .  S
C925        C930   1.386       .  A
C925       C2026   1.408       .  A
C925       S2031   1.715       .  A
C926       C2025   1.408   1_455  A
C926       C2027   1.408   1_455  A
C926        H937   1.083       .  S
C927       C2026   1.408       .  A
C927        C928   1.387       .  A
C928        C929   1.401       .  A
C928        S934   1.705       .  A
C929        C930   1.402       .  A
C929        H938   1.083       .  S
C930        C933   1.372       .  A
S931       C2025   1.715   1_455  A
S931       C2032   1.727   1_455  A
C932        C933   1.387       .  A
C932       S2031   1.727       .  A
C933        H939   1.083       .  S
C935        C936   1.390       .  A
C936       H2040   1.083       .  S
H940       C2036   1.083   1_455  S
C941       C2046   1.388       .  A
C941        C942   1.398       .  A
C941        S947   1.695       .  A
C942        C943   1.397       .  A
C942        H953   1.083       .  S
C943        C952   1.370       .  A
C943       C2044   1.386       .  A
C944       C2043   1.386       .  A
C944        C945   1.409   1_455  A
C944        S950   1.712   1_455  A
C945        C946   1.408       .  A
C945        H954   1.083       .  S
C946       C2041   1.388   1_655  A
C946        C949   1.382       .  A
S947        C948   1.724       .  A
C948       C2049   1.389       .  A
C949       C2048   1.389       .  A
C949        H955   1.083       .  S
S950       C2051   1.729   1_655  A
C951        C952   1.385       .  A
C951       S2050   1.729       .  A
C952        H956   1.083       .  S
C957        C962   1.387       .  A
C957        C958   1.403       .  A
C957        S963   1.710       .  A
C958        C959   1.404       .  A
C958        H969   1.083       .  S
C959        C968   1.372       .  A
C959        C960   1.387       .  A
C960        C961   1.400       .  A
C960        S966   1.706       .  A
C961        C962   1.401       .  A
C961        H970   1.083       .  S
C962        C965   1.369       .  A
S963        C964   1.724       .  A
C964        C965   1.385       .  A
C965        H971   1.083       .  S
S966        C967   1.720       .  A
C967        C968   1.387       .  A
C968        H972   1.083       .  S
C973        C974   1.400       .  A
C973        S979   1.705       .  A
C974        H985   1.083       .  S
C975        C976   1.386       .  A
C976        C977   1.406       .  A
C976        S982   1.713       .  A
C977        C978   1.407       .  A
C977        H986   1.083       .  S
C980        C981   1.388       .  A
C981        H987   1.083       .  S
S982        C983   1.727       .  A
C984        H988   1.083       .  S
C989        C994   1.386       .  A
C989        C990   1.408       .  A
C989        S995   1.716       .  A
C990        C991   1.409       .  A
C991        C992   1.387       .  A
C992        C993   1.394       .  A
C992        S998   1.696       .  A
C993        C994   1.395       .  A
C993       H1002   1.083       .  S
C994        C997   1.363       .  A
S995        C996   1.726       .  A
C996        C997   1.383       .  A
C997       H1003   1.084       .  S
C999       C1000   1.391       .  A
C1000      H1004   1.083       .  S
C1005      C1010   1.388       .  A
C1005      C1006   1.404       .  A
C1005      S1011   1.709   1_565  A
C1006      C1007   1.404       .  A
C1006      H1017   1.083   1_565  S
C1007      C1016   1.374       .  A
C1007      C1008   1.388       .  A
C1008      C1009   1.398       .  A
C1008      S1014   1.700       .  A
C1009      C1010   1.398       .  A
C1009      H1018   1.083       .  S
C1010      C1013   1.367       .  A
S1011      C1012   1.722   1_545  A
C1012      C1013   1.381       .  A
C1013      H1019   1.083       .  S
S1014      C1015   1.721       .  A
C1015      C1016   1.388       .  A
C1016      H1020   1.083   1_565  S
C1021      C1026   1.387       .  A
C1021      C1022   1.397       .  A
C1021      S1027   1.698       .  A
C1022      C1023   1.397       .  A
C1022      H1033   1.083       .  S
C1023      C1032   1.366       .  A
C1023      C1024   1.386       .  A
C1024      C1025   1.409       .  A
C1024      S1030   1.716       .  A
C1025      C1026   1.409       .  A
C1025      H1034   1.083       .  S
C1026      C1029   1.380       .  A
S1027      C1028   1.723       .  A
C1028      C1029   1.391       .  A
C1029      H1035   1.083       .  S
S1030      C1031   1.727       .  A
C1031      C1032   1.384       .  A
C1032      H1036   1.083       .  S
C1037      C1042   1.388       .  A
C1037      C1038   1.396       .  A
C1037      S1043   1.694       .  A
C1038      C1039   1.396       .  A
C1038      H1049   1.083       .  S
C1039      C1048   1.367       .  A
C1039      C1040   1.386       .  A
C1040      C1041   1.408       .  A
C1041      C1042   1.408       .  A
C1041      H1050   1.083   1_556  S
C1042      C1045   1.380       .  A
S1043      C1044   1.722       .  A
C1044      C1045   1.389       .  A
C1045      H1051   1.083       .  S
S1046      C1047   1.728       .  A
C1048      H1052   1.083       .  S
C1053      C1058   1.387       .  A
C1053      C1054   1.405       .  A
C1053      S1059   1.712       .  A
C1054      C1055   1.406       .  A
C1054      H1065   1.083       .  S
C1055      C1064   1.375   1_556  A
C1055      C1056   1.387       .  A
C1056      C1057   1.399       .  A
C1057      C1058   1.399       .  A
C1057      H1066   1.083       .  S
C1058      C1061   1.367       .  A
S1059      C1060   1.725       .  A
C1060      C1061   1.384       .  A
C1061      H1067   1.083       .  S
S1062      C1063   1.720       .  A
C1064      H1068   1.083       .  S
C1069      C1074   1.387       .  A
C1069      C1070   1.393       .  A
C1069      S1075   1.697       .  A
C1070      C1071   1.395       .  A
C1070      H1081   1.083       .  S
C1071      C1080   1.361       .  A
C1071      C1072   1.386       .  A
C1072      C1073   1.408       .  A
C1072      S1078   1.717       .  A
C1073      C1074   1.409       .  A
C1073      H1082   1.083       .  S
C1074      C1077   1.376       .  A
S1075      C1076   1.719       .  A
C1076      C1077   1.391       .  A
C1077      H1083   1.083       .  S
S1078      C1079   1.726       .  A
C1079      C1080   1.382       .  A
C1080      H1084   1.084       .  S
C1085      C1090   1.387       .  A
C1085      C1086   1.405       .  A
C1085      S1091   1.712       .  A
C1086      C1087   1.406       .  A
C1086      H1097   1.083       .  S
C1087      C1096   1.376       .  A
C1087      C1088   1.388       .  A
C1088      C1089   1.400       .  A
C1088      S1094   1.703       .  A
C1089      C1090   1.400       .  A
C1089      H1098   1.083       .  S
C1090      C1093   1.369       .  A
S1091      C1092   1.724       .  A
C1092      C1093   1.386       .  A
C1093      H1099   1.083       .  S
S1094      C1095   1.722       .  A
C1095      C1096   1.387       .  A
C1096      H1100   1.083       .  S
C1101      N1102   1.354       .  A
C1101      N1106   1.361       .  A
C1101      C1370   1.470       .  S
N1102      C1103   1.354       .  A
C1103      N1104   1.355       .  A
C1103      C1351   1.472       .  S
N1104      C1105   1.361       .  A
C1105      N1106   1.364       .  A
C1105      C1109   1.470       .  S
C1107      N1108   1.360       .  A
C1107      N1112   1.357       .  A
C1107      C1338   1.470       .  S
N1108      C1109   1.361       .  A
C1109      N1110   1.360       .  A
N1110      C1111   1.356       .  A
C1111      N1112   1.358       .  A
C1111      C1322   1.475       .  S
C1113      N1114   1.353       .  A
C1113      N1118   1.352       .  A
C1113      C1287   1.463       .  S
N1114      C1115   1.358       .  A
C1115      N1116   1.365       .  A
C1115      C1303   1.477       .  S
N1116      C1117   1.366       .  A
C1117      N1118   1.359       .  A
C1117      C1123   1.472       .  S
C1119      N1120   1.352       .  A
C1119      N1124   1.355       .  A
C1119      C1255   1.470       .  S
N1120      C1121   1.357       .  A
C1121      N1122   1.362       .  A
C1121      C1274   1.474       .  S
N1122      C1123   1.364       .  A
C1123      N1124   1.364       .  A
C1125      N1126   1.360   1_455  A
C1125      N1130   1.360       .  A
C1125      C1242   1.468       .  S
N1126      C1127   1.358       .  A
C1127      N1128   1.360       .  A
C1127      C1133   1.469       .  S
N1128      C1129   1.355   1_655  A
C1129      N1130   1.359       .  A
C1129      C1226   1.479       .  S
C1131      N1132   1.365       .  A
C1131      N1136   1.360       .  A
C1131      C1210   1.478       .  S
N1132      C1133   1.365       .  A
C1133      N1134   1.354       .  A
N1134      C1135   1.350       .  A
C1135      N1136   1.358       .  A
C1135      C1194   1.470       .  S
O1137     Mn1163   2.092   1_565  S
O1137      C1714   1.271       .  A
C1138      C1335   1.471       .  S
C1138      O1171   1.270       .  A
C1138      O1168   1.272       .  A
O1139     Mn1146   2.172       .  S
O1139     Mn1157   2.112       .  S
O1139     Mn1161   2.170       .  S
O1139     Mn1713   2.109       .  S
O1140     Mn1174   2.090       .  S
O1140      C1150   1.270       .  A
O1141     Mn1157   2.086       .  S
O1141      C1164   1.270       .  A
O1142     Mn1161   2.105       .  S
O1142      C1169   1.252       .  A
O1143     Mn1163   1.973       .  S
O1143      C1159   1.211       .  S
C1144      C1306   1.474       .  S
C1144      O1147   1.252       .  A
C1144      O1170   1.221       .  S
O1145     Mn1146   2.180       .  S
O1145     Mn1179   2.119       .  S
O1145     Mn1161   2.174       .  S
Mn1146     O1151   2.129       .  S
Mn1146     O1728   2.139       .  S
O1148     Mn1155   2.099       .  S
O1148      C1150   1.271       .  A
C1149      C1271   1.473       .  S
C1149      O1175   1.254       .  A
C1149      O1162   1.221       .  S
C1150      C1367   1.472       .  S
O1151      C1176   1.254       .  A
O1152     Mn1155   2.125       .  S
O1152     Mn1174   2.111       .  S
O1153     Mn1157   1.952       .  S
O1153     Mn1179   1.942       .  S
O1153      C1176   1.214       .  S
C1154      C1239   1.471       .  S
C1154      O1156   1.269       .  A
Mn1155     O1168   2.097       .  S
Mn1155     O1720   1.964   1_545  S
Mn1155     O1712   1.961   1_545  S
O1156     Mn1179   2.086       .  S
Mn1157     O1173   2.098       .  S
Mn1157     O1167   1.963       .  S
O1158     Mn1713   2.101       .  S
O1158      C1160   1.273       .  A
C1159      C1223   1.476       .  S
C1159      O1177   1.254       .  A
C1160      C1258   1.477       .  S
C1160      O1173   1.272       .  A
Mn1161     O1727   2.139       .  S
O1162     Mn1705   1.961       .  S
O1162     Mn1165   1.964       .  S
Mn1163     O1708   2.101   1_545  S
Mn1163     O1689   2.109   1_545  S
Mn1163     O1181   2.019       .  S
C1164      C1290   1.469       .  S
C1164      O1687   1.271       .  A
Mn1165     O1172   2.104       .  S
Mn1165     O1180   2.102       .  S
Mn1165     O1170   1.965       .  S
C1166      C1207   1.479       .  S
C1166      O1182   1.272       .  A
O1167     Mn1179   1.962       .  S
O1167      C1169   1.219       .  S
C1169      C1354   1.471       .  S
O1170     Mn1705   1.964       .  S
O1171     Mn1174   2.090       .  S
C1176      C1319   1.472       .  S
O1177     Mn1711   2.139   1_545  S
O1178     Mn1696   2.139   1_545  S
O1178      C1183   1.256       .  A
Mn1179     O1182   2.101       .  S
O1181      C1183   1.237       .  A
C1183      C1191   1.468       .  S
C1184      C1189   1.388       .  A
C1185      H1196   1.084       .  S
C1186      C1187   1.387       .  A
C1187      C1188   1.408       .  A
C1187      S1193   1.706       .  A
C1188      C1189   1.405       .  A
C1188      H1197   1.083       .  S
C1189      C1192   1.382       .  A
C1191      C1192   1.387       .  A
C1192      H1198   1.083       .  S
S1193      C1469   1.728       .  A
C1194      S1468   1.728       .  A
C1195      H1199   1.083       .  S
C1200      C1205   1.386       .  A
C1201      H1212   1.083       .  S
C1202      C1486   1.379       .  A
C1202      C1203   1.387       .  A
C1203      C1204   1.401       .  A
C1203      S1209   1.705       .  A
C1204      C1205   1.402       .  A
C1204      H1213   1.083       .  S
C1205      C1208   1.372       .  A
C1207      C1208   1.387       .  A
C1208      H1214   1.083       .  S
S1209      C1485   1.723       .  A
C1210      C1211   1.390       .  A
C1210      S1484   1.723   1_554  A
C1211      C1477   1.379   1_554  A
C1216      C1217   1.398       .  A
C1216      S1222   1.695       .  A
C1217      C1218   1.397       .  A
C1217      H1228   1.083       .  S
C1218      C1227   1.370       .  A
C1219      C1220   1.409       .  A
C1219      S1225   1.712       .  A
C1220      C1221   1.408       .  A
C1220      H1229   1.083       .  S
C1221      C1224   1.382       .  A
S1222      C1223   1.724   1_455  A
C1224      H1230   1.083       .  S
C1226      C1227   1.385       .  A
C1227      H1231   1.083       .  S
C1232      C1237   1.387   1_655  A
C1232      C1233   1.403       .  A
C1232      S1238   1.710       .  A
C1233      C1234   1.404       .  A
C1233      H1244   1.083       .  S
C1234      C1243   1.372       .  A
C1234      C1235   1.387   1_655  A
C1235      C1236   1.400       .  A
C1235      S1241   1.706       .  A
C1236      C1237   1.401       .  A
C1236      H1245   1.083       .  S
C1237      C1240   1.369       .  A
S1238      C1239   1.724       .  A
C1239      C1240   1.385   1_655  A
C1240      H1246   1.083       .  S
S1241      C1242   1.720       .  A
C1242      C1243   1.387   1_455  A
C1243      H1247   1.083       .  S
C1248      C1803   1.387   1_545  A
C1248      C1249   1.400       .  A
C1248      S1254   1.705       .  A
C1249      C1800   1.401   1_545  A
C1249      H1260   1.083       .  S
C1250      C1799   1.401       .  A
C1250      C1809   1.369       .  A
C1250      C1251   1.386       .  A
C1251      C1252   1.406       .  A
C1251      S1257   1.713       .  A
C1252      C1253   1.407       .  A
C1252      H1261   1.083       .  S
C1253      C1798   1.387       .  A
C1253      C1531   1.376       .  A
S1254      C2080   1.720   1_545  A
C1255      C1256   1.388       .  A
C1255      S2079   1.720   1_554  A
C1256      C1528   1.376   1_554  A
C1256      H1262   1.083       .  S
S1257      C1258   1.727       .  A
C1258      C1809   1.386       .  A
C1259      C1800   1.369   1_545  A
C1259      C1808   1.386   1_545  A
C1259      H1263   1.083       .  S
C1264      C1269   1.386       .  A
C1264      C1265   1.408       .  A
C1264      S1270   1.716       .  A
C1265      C1266   1.409       .  A
C1265      H1551   1.083       .  S
C1266      C1550   1.378       .  A
C1266      C1267   1.387       .  A
C1267      C1268   1.394       .  A
C1267      S1273   1.696       .  A
C1268      C1269   1.395       .  A
C1268      H1277   1.083       .  S
C1269      C1272   1.363       .  A
S1270      C1271   1.726       .  A
C1271      C1272   1.383       .  A
C1272      H1278   1.084       .  S
S1273      C1549   1.721       .  A
C1274      C1275   1.391       .  A
C1274      S1548   1.721   1_554  A
C1275      C1541   1.378   1_554  A
C1275      H1279   1.083       .  S
H1276      C1540   1.083   1_554  S
C1280      C1285   1.388       .  A
C1280      C1281   1.404       .  A
C1280      S1286   1.709       .  A
C1281      C1282   1.404       .  A
C1281      H1292   1.083       .  S
C1282      C1291   1.374       .  A
C1282      C1283   1.388       .  A
C1283      C1284   1.398       .  A
C1283      S1289   1.700       .  A
C1284      C1285   1.398       .  A
C1284      H1293   1.083       .  S
C1285      C1288   1.367       .  A
S1286      C1287   1.722       .  A
C1287      C1288   1.381       .  A
C1288      H1294   1.083       .  S
S1289      C1290   1.721       .  A
C1290      C1291   1.388       .  A
C1291      H1295   1.083       .  S
C1296      C1301   1.387       .  A
C1296      C1297   1.397       .  A
C1296      S1302   1.698       .  A
C1297      C1298   1.397       .  A
C1297      H1308   1.083       .  S
C1298      C1307   1.366       .  A
C1298      C1299   1.386       .  A
C1299      C1300   1.409       .  A
C1299      S1305   1.716       .  A
C1300      C1301   1.409       .  A
C1300      H1309   1.083       .  S
C1301      C1304   1.380       .  A
S1302      C1303   1.723       .  A
C1303      C1304   1.391       .  A
C1304      H1310   1.083       .  S
S1305      C1306   1.727       .  A
C1306      C1307   1.384       .  A
C1307      H1311   1.083       .  S
C1312      C1317   1.388       .  A
C1312      C1313   1.396       .  A
C1312      S1318   1.694       .  A
C1313      C1314   1.396       .  A
C1313      H1324   1.083       .  S
C1314      C1323   1.367       .  A
C1314      C1315   1.386       .  A
C1315      C1316   1.408       .  A
C1315      S1596   1.712       .  A
C1316      C1317   1.407       .  A
C1316      H1325   1.083       .  S
C1317      C1320   1.380       .  A
S1318      C1319   1.722       .  A
C1319      C1320   1.389       .  A
C1320      H1326   1.083       .  S
S1321      C1590   1.712   1_554  A
S1321      C1322   1.728       .  A
C1322      C1598   1.384   1_554  A
C1323      C1597   1.384       .  A
C1323      H1327   1.083       .  S
C1328      C1333   1.387       .  A
C1328      C1329   1.405       .  A
C1328      S1334   1.712       .  A
C1329      C1330   1.406       .  A
C1329      H1340   1.083       .  S
C1330      C1339   1.375       .  A
C1330      C1331   1.387       .  A
C1331      C1332   1.399       .  A
C1331      S1612   1.704       .  A
C1332      C1333   1.399       .  A
C1332      H1341   1.083       .  S
C1333      C1336   1.367       .  A
S1334      C1335   1.725       .  A
C1335      C1336   1.384       .  A
C1336      H1342   1.083       .  S
S1337      C1606   1.704       .  A
S1337      C1338   1.720   1_556  A
C1338      C1614   1.388       .  A
C1339      C1613   1.388       .  A
C1339      H1343   1.083       .  S
C1344      C1349   1.387       .  A
C1344      C1345   1.393       .  A
C1344      S1350   1.697       .  A
C1345      C1346   1.395       .  A
C1345      H1356   1.083       .  S
C1346      C1355   1.361       .  A
C1346      C1347   1.386       .  A
C1347      C1348   1.408       .  A
C1347      S1353   1.717       .  A
C1348      C1349   1.409       .  A
C1348      H1357   1.083       .  S
C1349      C1352   1.376       .  A
S1350      C1351   1.719       .  A
C1351      C1352   1.391       .  A
C1352      H1358   1.083       .  S
S1353      C1354   1.726       .  A
C1354      C1355   1.382       .  A
C1355      H1359   1.084       .  S
C1360      C1365   1.387       .  A
C1360      C1361   1.405       .  A
C1360      S1366   1.712       .  A
C1361      C1362   1.406       .  A
C1361      H1372   1.083       .  S
C1362      C1371   1.376       .  A
C1362      C1363   1.388       .  A
C1363      C1364   1.400       .  A
C1363      S1369   1.703       .  A
C1364      C1365   1.400       .  A
C1364      H1373   1.083       .  S
C1365      C1368   1.369       .  A
S1366      C1367   1.724       .  A
C1367      C1368   1.386       .  A
C1368      H1374   1.083       .  S
S1369      C1370   1.722       .  A
C1370      C1371   1.387       .  A
C1371      H1375   1.083       .  S
C1376      N1377   1.354       .  A
C1376      N1381   1.361       .  A
C1376      C1645   1.470       .  S
N1377      C1378   1.354       .  A
C1378      N1379   1.355       .  A
C1378      C1626   1.472       .  S
N1379      C1380   1.361       .  A
C1380      N1381   1.364       .  A
C1380      C1384   1.470       .  S
C1382      N1383   1.360       .  A
C1382      N1387   1.357       .  A
C1382      C1613   1.470       .  S
N1383      C1384   1.361       .  A
C1384      N1385   1.360       .  A
N1385      C1386   1.356       .  A
C1386      N1387   1.358       .  A
C1386      C1597   1.475       .  S
C1388      N1389   1.353       .  A
C1388      N1393   1.352       .  A
C1388      C1562   1.463       .  S
N1389      C1390   1.358       .  A
C1390      N1391   1.365       .  A
C1390      C1578   1.477       .  S
N1391      C1392   1.366       .  A
C1392      N1393   1.359       .  A
C1392      C1398   1.472       .  S
C1394      N1395   1.352       .  A
C1394      N1399   1.355       .  A
C1394      C1530   1.470       .  S
N1395      C1396   1.357       .  A
C1396      N1397   1.362       .  A
C1396      C1549   1.474       .  S
N1397      C1398   1.364       .  A
C1398      N1399   1.364       .  A
C1400      N1401   1.360   1_455  A
C1400      N1405   1.360       .  A
C1400      C1517   1.468       .  S
N1401      C1402   1.358       .  A
C1402      N1403   1.360       .  A
C1402      C1408   1.469       .  S
N1403      C1404   1.355   1_655  A
C1404      N1405   1.359       .  A
C1404      C1501   1.479       .  S
C1406      N1407   1.365       .  A
C1406      N1411   1.360       .  A
C1406      C1485   1.478       .  S
N1407      C1408   1.365       .  A
C1408      N1409   1.354       .  A
N1409      C1410   1.350       .  A
C1410      N1411   1.358       .  A
C1410      C1469   1.470       .  S
O1412     Mn1438   2.092   1_565  S
O1412      C1989   1.271       .  A
C1413      C1610   1.471       .  S
C1413      O1446   1.270       .  A
C1413      O1443   1.272       .  A
O1414     Mn1421   2.172       .  S
O1414     Mn1432   2.112       .  S
O1414     Mn1436   2.170       .  S
O1414     Mn1988   2.109       .  S
O1415     Mn1449   2.090       .  S
O1415      C1425   1.270       .  A
O1416     Mn1432   2.086       .  S
O1416      C1439   1.270       .  A
O1417     Mn1436   2.105       .  S
O1417      C1444   1.252       .  A
O1418     Mn1438   1.973       .  S
O1418      C1434   1.211       .  S
C1419      C1581   1.474       .  S
C1419      O1422   1.252       .  A
C1419      O1445   1.221       .  S
O1420     Mn1421   2.180       .  S
O1420     Mn1454   2.119       .  S
O1420     Mn1436   2.174       .  S
Mn1421     O1426   2.129       .  S
Mn1421     O2003   2.139       .  S
O1423     Mn1430   2.099       .  S
O1423      C1425   1.271       .  A
C1424      C1546   1.473       .  S
C1424      O1450   1.254       .  A
C1424      O1437   1.221       .  S
C1425      C1642   1.472       .  S
O1426      C1451   1.254       .  A
O1427     Mn1430   2.125       .  S
O1427     Mn1449   2.111       .  S
O1428     Mn1432   1.952       .  S
O1428     Mn1454   1.942       .  S
O1428      C1451   1.214       .  S
C1429      C1514   1.471       .  S
C1429      O1431   1.269       .  A
Mn1430     O1443   2.097       .  S
Mn1430     O1995   1.964   1_545  S
Mn1430     O1987   1.961   1_545  S
O1431     Mn1454   2.086       .  S
Mn1432     O1448   2.098       .  S
Mn1432     O1442   1.963       .  S
O1433     Mn1988   2.101       .  S
O1433      C1435   1.273       .  A
C1434      C1498   1.476       .  S
C1434      O1452   1.254       .  A
C1435      C1533   1.477       .  S
C1435      O1448   1.272       .  A
Mn1436     O2002   2.139       .  S
O1437     Mn1980   1.961       .  S
O1437     Mn1440   1.964       .  S
Mn1438     O1983   2.101   1_545  S
Mn1438     O1964   2.109   1_545  S
Mn1438     O1456   2.019       .  S
C1439      C1565   1.469       .  S
C1439      O1962   1.271       .  A
Mn1440     O1447   2.104       .  S
Mn1440     O1455   2.102       .  S
Mn1440     O1445   1.965       .  S
C1441      C1482   1.479       .  S
C1441      O1457   1.272       .  A
O1442     Mn1454   1.962       .  S
O1442      C1444   1.219       .  S
C1444      C1629   1.471       .  S
O1445     Mn1980   1.964       .  S
O1446     Mn1449   2.090       .  S
C1451      C1594   1.472       .  S
O1452     Mn1986   2.139   1_545  S
O1453     Mn1971   2.139   1_545  S
O1453      C1458   1.256       .  A
Mn1454     O1457   2.101       .  S
O1456      C1458   1.237       .  A
C1458      C1466   1.468       .  S
C1459      C1464   1.388       .  A
C1460      H1471   1.084       .  S
C1461      C1462   1.387       .  A
C1462      C1463   1.408       .  A
C1462      S1468   1.706   1_556  A
C1463      C1464   1.405       .  A
C1463      H1472   1.083   1_556  S
C1464      C1467   1.382       .  A
C1466      C1467   1.387       .  A
C1467      H1473   1.083       .  S
C1470      H1474   1.083       .  S
C1475      C1480   1.386       .  A
C1476      H1487   1.083       .  S
C1477      C1478   1.387       .  A
C1478      C1479   1.401       .  A
C1478      S1484   1.705       .  A
C1479      C1480   1.402       .  A
C1479      H1488   1.083       .  S
C1480      C1483   1.372       .  A
C1482      C1483   1.387       .  A
C1483      H1489   1.083       .  S
C1485      C1486   1.390       .  A
C1491      C1492   1.398       .  A
C1491      S1497   1.695       .  A
C1492      C1493   1.397       .  A
C1492      H1503   1.083       .  S
C1493      C1502   1.370       .  A
C1494      C1495   1.409       .  A
C1494      S1500   1.712       .  A
C1495      C1496   1.408       .  A
C1495      H1504   1.083       .  S
C1496      C1499   1.382       .  A
S1497      C1498   1.724   1_455  A
C1499      H1505   1.083       .  S
C1501      C1502   1.385       .  A
C1502      H1506   1.083       .  S
C1507      C1512   1.387   1_655  A
C1507      C1508   1.403       .  A
C1507      S1513   1.710       .  A
C1508      C1509   1.404       .  A
C1508      H1519   1.083       .  S
C1509      C1518   1.372       .  A
C1509      C1510   1.387   1_655  A
C1510      C1511   1.400       .  A
C1510      S1516   1.706       .  A
C1511      C1512   1.401       .  A
C1511      H1520   1.083       .  S
C1512      C1515   1.369       .  A
S1513      C1514   1.724       .  A
C1514      C1515   1.385   1_655  A
C1515      H1521   1.083       .  S
S1516      C1517   1.720       .  A
C1517      C1518   1.387   1_455  A
C1518      H1522   1.083       .  S
C1523      C2078   1.387   1_545  A
C1523      C1524   1.400       .  A
C1523      S1529   1.705       .  A
C1524      C2075   1.401   1_545  A
C1524      H1535   1.083       .  S
C1525      C2074   1.401       .  A
C1525      C2084   1.369       .  A
C1525      C1526   1.386       .  A
C1526      C1527   1.406       .  A
C1526      S1532   1.713       .  A
C1527      C1528   1.407       .  A
C1527      H1536   1.083       .  S
C1528      C2073   1.387       .  A
S1529      C1805   1.720   1_546  A
C1530      C1531   1.388       .  A
C1530      S1804   1.720       .  A
C1531      H1537   1.083       .  S
S1532      C1533   1.727       .  A
C1533      C2084   1.386       .  A
C1534      C2075   1.369   1_545  A
C1534      C2083   1.386   1_545  A
C1534      H1538   1.083       .  S
C1539      C1544   1.386       .  A
C1539      C1540   1.408       .  A
C1539      S1545   1.716       .  A
C1540      C1541   1.409       .  A
C1541      C1542   1.387       .  A
C1542      C1543   1.395       .  A
C1542      S1548   1.696       .  A
C1543      C1544   1.395       .  A
C1543      H1552   1.083       .  S
C1544      C1547   1.363       .  A
S1545      C1546   1.726       .  A
C1546      C1547   1.383       .  A
C1547      H1553   1.084       .  S
C1549      C1550   1.391       .  A
C1550      H1554   1.083       .  S
C1555      C1560   1.388       .  A
C1555      C1556   1.404       .  A
C1555      S1561   1.709       .  A
C1556      C1557   1.404       .  A
C1556      H1567   1.083       .  S
C1557      C1566   1.374       .  A
C1557      C1558   1.388       .  A
C1558      C1559   1.398       .  A
C1558      S1564   1.700       .  A
C1559      C1560   1.398       .  A
C1559      H1568   1.083       .  S
C1560      C1563   1.367       .  A
S1561      C1562   1.722       .  A
C1562      C1563   1.381       .  A
C1563      H1569   1.083       .  S
S1564      C1565   1.721       .  A
C1565      C1566   1.388       .  A
C1566      H1570   1.083       .  S
C1571      C1576   1.387       .  A
C1571      C1572   1.397       .  A
C1571      S1577   1.698       .  A
C1572      C1573   1.397       .  A
C1572      H1583   1.083       .  S
C1573      C1582   1.366       .  A
C1573      C1574   1.386       .  A
C1574      C1575   1.409       .  A
C1574      S1580   1.716       .  A
C1575      C1576   1.409       .  A
C1575      H1584   1.083       .  S
C1576      C1579   1.380       .  A
S1577      C1578   1.723       .  A
C1578      C1579   1.391       .  A
C1579      H1585   1.083       .  S
S1580      C1581   1.727       .  A
C1581      C1582   1.384       .  A
C1582      H1586   1.083       .  S
C1587      C1592   1.388       .  A
C1587      C1588   1.396       .  A
C1587      S1593   1.694       .  A
C1588      C1589   1.396       .  A
C1588      H1599   1.083       .  S
C1589      C1598   1.367       .  A
C1589      C1590   1.386       .  A
C1590      C1591   1.408       .  A
C1591      C1592   1.407       .  A
C1591      H1600   1.083   1_556  S
C1592      C1595   1.380       .  A
S1593      C1594   1.722       .  A
C1594      C1595   1.389       .  A
C1595      H1601   1.083       .  S
S1596      C1597   1.728       .  A
C1598      H1602   1.083       .  S
C1603      C1608   1.387       .  A
C1603      C1604   1.405       .  A
C1603      S1609   1.712       .  A
C1604      C1605   1.406       .  A
C1604      H1615   1.083       .  S
C1605      C1614   1.375   1_556  A
C1605      C1606   1.387       .  A
C1606      C1607   1.399       .  A
C1607      C1608   1.399       .  A
C1607      H1616   1.083       .  S
C1608      C1611   1.367       .  A
S1609      C1610   1.725       .  A
C1610      C1611   1.384       .  A
C1611      H1617   1.083       .  S
S1612      C1613   1.720       .  A
C1614      H1618   1.083       .  S
C1619      C1624   1.387       .  A
C1619      C1620   1.393       .  A
C1619      S1625   1.697       .  A
C1620      C1621   1.395       .  A
C1620      H1631   1.083       .  S
C1621      C1630   1.361       .  A
C1621      C1622   1.386       .  A
C1622      C1623   1.408       .  A
C1622      S1628   1.717       .  A
C1623      C1624   1.409       .  A
C1623      H1632   1.083       .  S
C1624      C1627   1.376       .  A
S1625      C1626   1.719       .  A
C1626      C1627   1.391       .  A
C1627      H1633   1.083       .  S
S1628      C1629   1.726       .  A
C1629      C1630   1.382       .  A
C1630      H1634   1.084       .  S
C1635      C1640   1.387       .  A
C1635      C1636   1.405       .  A
C1635      S1641   1.712       .  A
C1636      C1637   1.406       .  A
C1636      H1647   1.083       .  S
C1637      C1646   1.376       .  A
C1637      C1638   1.388       .  A
C1638      C1639   1.400       .  A
C1638      S1644   1.703       .  A
C1639      C1640   1.400       .  A
C1639      H1648   1.083       .  S
C1640      C1643   1.369       .  A
S1641      C1642   1.724       .  A
C1642      C1643   1.386       .  A
C1643      H1649   1.083       .  S
S1644      C1645   1.722       .  A
C1645      C1646   1.387       .  A
C1646      H1650   1.083       .  S
C1651      N1652   1.354       .  A
C1651      N1656   1.361       .  A
C1651      C1920   1.470       .  S
N1652      C1653   1.354       .  A
C1653      N1654   1.355       .  A
C1653      C1901   1.472       .  S
N1654      C1655   1.361       .  A
C1655      N1656   1.364       .  A
C1655      C1659   1.470       .  S
C1657      N1658   1.360       .  A
C1657      N1662   1.357       .  A
C1657      C1888   1.470       .  S
N1658      C1659   1.361       .  A
C1659      N1660   1.360       .  A
N1660      C1661   1.356       .  A
C1661      N1662   1.358       .  A
C1661      C1872   1.475       .  S
C1663      N1664   1.352       .  A
C1663      N1668   1.352       .  A
C1663      C1837   1.463       .  S
N1664      C1665   1.358       .  A
C1665      N1666   1.365       .  A
C1665      C1853   1.477       .  S
N1666      C1667   1.366       .  A
C1667      N1668   1.359       .  A
C1667      C1673   1.472       .  S
C1669      N1670   1.352       .  A
C1669      N1674   1.355       .  A
C1669      C1805   1.470       .  S
N1670      C1671   1.357       .  A
C1671      N1672   1.362       .  A
C1671      C1824   1.474       .  S
N1672      C1673   1.364       .  A
C1673      N1674   1.364       .  A
C1675      N1676   1.360   1_455  A
C1675      N1680   1.360       .  A
C1675      C1792   1.468       .  S
N1676      C1677   1.358       .  A
C1677      N1678   1.360       .  A
C1677      C1683   1.469       .  S
N1678      C1679   1.355   1_655  A
C1679      N1680   1.359       .  A
C1679      C1776   1.479       .  S
C1681      N1682   1.365       .  A
C1681      N1686   1.360       .  A
C1681      C1760   1.478       .  S
N1682      C1683   1.365       .  A
C1683      N1684   1.354       .  A
N1684      C1685   1.350       .  A
C1685      N1686   1.358       .  A
C1685      C1744   1.470       .  S
O1687     Mn1713   2.092       .  S
C1688      C1885   1.471       .  S
C1688      O1721   1.270       .  A
C1688      O1718   1.272       .  A
O1689     Mn1696   2.172       .  S
O1689     Mn1707   2.112       .  S
O1689     Mn1711   2.170       .  S
O1690     Mn1724   2.090       .  S
O1690      C1700   1.270       .  A
O1691     Mn1707   2.086       .  S
O1691      C1714   1.270       .  A
O1692     Mn1711   2.105       .  S
O1692      C1719   1.252       .  A
O1693     Mn1713   1.973       .  S
O1693      C1709   1.211       .  S
C1694      C1856   1.474       .  S
C1694      O1697   1.252       .  A
C1694      O1720   1.221       .  S
O1695     Mn1696   2.180       .  S
O1695     Mn1729   2.119       .  S
O1695     Mn1711   2.174       .  S
Mn1696     O1701   2.129       .  S
O1698     Mn1705   2.099       .  S
O1698      C1700   1.271       .  A
C1699      C1821   1.473       .  S
C1699      O1725   1.254       .  A
C1699      O1712   1.221       .  S
C1700      C1917   1.472       .  S
O1701      C1726   1.254       .  A
O1702     Mn1705   2.125       .  S
O1702     Mn1724   2.111       .  S
O1703     Mn1707   1.952       .  S
O1703     Mn1729   1.942       .  S
O1703      C1726   1.214       .  S
C1704      C1789   1.471       .  S
C1704      O1706   1.269       .  A
Mn1705     O1718   2.097       .  S
O1706     Mn1729   2.086       .  S
Mn1707     O1723   2.098       .  S
Mn1707     O1717   1.963       .  S
O1708      C1710   1.273       .  A
C1709      C1773   1.476       .  S
C1709      O1727   1.254       .  A
C1710      C1808   1.477       .  S
C1710      O1723   1.272       .  A
O1712     Mn1715   1.964       .  S
Mn1713     O1731   2.019       .  S
C1714      C1840   1.469       .  S
Mn1715     O1722   2.104       .  S
Mn1715     O1730   2.102       .  S
Mn1715     O1720   1.965       .  S
C1716      C1757   1.479       .  S
C1716      O1732   1.272       .  A
O1717     Mn1729   1.962       .  S
O1717      C1719   1.219       .  S
C1719      C1904   1.471       .  S
O1721     Mn1724   2.090       .  S
C1726      C1869   1.472       .  S
O1728      C1733   1.256       .  A
Mn1729     O1732   2.101       .  S
O1731      C1733   1.237       .  A
C1733      C1741   1.468       .  S
C1734      C1739   1.388       .  A
C1735      H1746   1.084       .  S
C1736      C1737   1.387       .  A
C1737      C1738   1.408       .  A
C1737      S1743   1.706       .  A
C1738      C1739   1.405       .  A
C1738      H1747   1.083       .  S
C1739      C1742   1.382       .  A
C1741      C1742   1.387       .  A
C1742      H1748   1.083       .  S
S1743      C2019   1.728       .  A
C1744      S2018   1.728       .  A
C1745      H1749   1.083       .  S
C1750      C1755   1.386       .  A
C1751      H1762   1.083       .  S
C1752      C2036   1.379       .  A
C1752      C1753   1.387       .  A
C1753      C1754   1.401       .  A
C1753      S1759   1.705       .  A
C1754      C1755   1.402       .  A
C1754      H1763   1.083       .  S
C1755      C1758   1.372       .  A
C1757      C1758   1.387       .  A
C1758      H1764   1.083       .  S
S1759      C2035   1.723       .  A
C1760      C1761   1.390       .  A
C1760      S2034   1.723   1_554  A
C1761      C2027   1.379   1_554  A
C1766      C1767   1.398       .  A
C1766      S1772   1.695       .  A
C1767      C1768   1.397       .  A
C1767      H1778   1.083       .  S
C1768      C1777   1.370       .  A
C1769      C1770   1.409       .  A
C1769      S1775   1.712       .  A
C1770      C1771   1.408       .  A
C1770      H1779   1.083       .  S
C1771      C1774   1.382       .  A
S1772      C1773   1.724   1_455  A
C1774      H1780   1.083       .  S
C1776      C1777   1.385       .  A
C1777      H1781   1.083       .  S
C1782      C1787   1.387   1_655  A
C1782      C1783   1.403       .  A
C1782      S1788   1.710       .  A
C1783      C1784   1.404       .  A
C1783      H1794   1.083       .  S
C1784      C1793   1.372       .  A
C1784      C1785   1.387   1_655  A
C1785      C1786   1.400       .  A
C1785      S1791   1.706       .  A
C1786      C1787   1.401       .  A
C1786      H1795   1.083       .  S
C1787      C1790   1.369       .  A
S1788      C1789   1.724       .  A
C1789      C1790   1.385   1_655  A
C1790      H1796   1.083       .  S
S1791      C1792   1.720       .  A
C1792      C1793   1.387   1_455  A
C1793      H1797   1.083       .  S
C1798      C1799   1.400       .  A
C1798      S1804   1.705       .  A
C1799      H1810   1.083       .  S
C1800      C1801   1.386       .  A
C1801      C1802   1.406       .  A
C1801      S1807   1.713       .  A
C1802      C1803   1.407       .  A
C1802      H1811   1.083       .  S
C1803      C2081   1.376       .  A
C1805      C1806   1.388       .  A
C1806      C2078   1.376   1_554  A
C1806      H1812   1.083       .  S
S1807      C1808   1.727       .  A
C1809      H1813   1.083       .  S
C1814      C1819   1.386       .  A
C1814      C1815   1.408       .  A
C1814      S1820   1.716       .  A
C1815      C1816   1.409       .  A
C1815      H2101   1.083       .  S
C1816      C2100   1.378       .  A
C1816      C1817   1.387       .  A
C1817      C1818   1.394       .  A
C1817      S1823   1.696       .  A
C1818      C1819   1.395       .  A
C1818      H1827   1.083       .  S
C1819      C1822   1.363       .  A
S1820      C1821   1.726       .  A
C1821      C1822   1.383       .  A
C1822      H1828   1.084       .  S
S1823      C2099   1.721       .  A
C1824      C1825   1.391       .  A
C1824      S2098   1.721   1_554  A
C1825      C2091   1.378   1_554  A
C1825      H1829   1.083       .  S
H1826      C2090   1.083   1_554  S
C1830      C1835   1.388       .  A
C1830      C1831   1.404       .  A
C1830      S1836   1.709   1_565  A
C1831      C1832   1.404       .  A
C1831      H1842   1.083   1_565  S
C1832      C1841   1.374       .  A
C1832      C1833   1.388       .  A
C1833      C1834   1.398       .  A
C1833      S1839   1.700       .  A
C1834      C1835   1.398       .  A
C1834      H1843   1.083       .  S
C1835      C1838   1.367       .  A
S1836      C1837   1.722   1_545  A
C1837      C1838   1.381       .  A
C1838      H1844   1.083       .  S
S1839      C1840   1.721       .  A
C1840      C1841   1.388       .  A
C1841      H1845   1.083   1_565  S
C1846      C1851   1.387       .  A
C1846      C1847   1.397       .  A
C1846      S1852   1.698       .  A
C1847      C1848   1.397       .  A
C1847      H1858   1.083       .  S
C1848      C1857   1.366       .  A
C1848      C1849   1.386       .  A
C1849      C1850   1.409       .  A
C1849      S1855   1.716       .  A
C1850      C1851   1.409       .  A
C1850      H1859   1.083       .  S
C1851      C1854   1.380       .  A
S1852      C1853   1.723       .  A
C1853      C1854   1.391       .  A
C1854      H1860   1.083       .  S
S1855      C1856   1.727       .  A
C1856      C1857   1.384       .  A
C1857      H1861   1.083       .  S
C1862      C1867   1.388       .  A
C1862      C1863   1.396       .  A
C1862      S1868   1.694       .  A
C1863      C1864   1.396       .  A
C1863      H1874   1.083       .  S
C1864      C1873   1.367       .  A
C1864      C1865   1.386       .  A
C1865      C1866   1.408       .  A
C1865      S2146   1.712       .  A
C1866      C1867   1.407       .  A
C1866      H1875   1.083       .  S
C1867      C1870   1.380       .  A
S1868      C1869   1.722       .  A
C1869      C1870   1.389       .  A
C1870      H1876   1.083       .  S
S1871      C2140   1.712   1_554  A
S1871      C1872   1.728       .  A
C1872      C2148   1.384   1_554  A
C1873      C2147   1.384       .  A
C1873      H1877   1.083       .  S
C1878      C1883   1.387       .  A
C1878      C1879   1.405       .  A
C1878      S1884   1.712       .  A
C1879      C1880   1.406       .  A
C1879      H1890   1.083       .  S
C1880      C1889   1.375       .  A
C1880      C1881   1.387       .  A
C1881      C1882   1.399       .  A
C1881      S2162   1.704       .  A
C1882      C1883   1.399       .  A
C1882      H1891   1.083       .  S
C1883      C1886   1.367       .  A
S1884      C1885   1.725       .  A
C1885      C1886   1.384       .  A
C1886      H1892   1.083       .  S
S1887      C2156   1.704       .  A
S1887      C1888   1.720   1_556  A
C1888      C2164   1.388       .  A
C1889      C2163   1.388       .  A
C1889      H1893   1.083       .  S
C1894      C1899   1.387       .  A
C1894      C1895   1.393       .  A
C1894      S1900   1.697       .  A
C1895      C1896   1.395       .  A
C1895      H1906   1.083       .  S
C1896      C1905   1.361       .  A
C1896      C1897   1.386       .  A
C1897      C1898   1.408       .  A
C1897      S1903   1.717       .  A
C1898      C1899   1.409       .  A
C1898      H1907   1.083       .  S
C1899      C1902   1.376       .  A
S1900      C1901   1.719       .  A
C1901      C1902   1.391       .  A
C1902      H1908   1.083       .  S
S1903      C1904   1.726       .  A
C1904      C1905   1.382       .  A
C1905      H1909   1.084       .  S
C1910      C1915   1.387       .  A
C1910      C1911   1.405       .  A
C1910      S1916   1.712       .  A
C1911      C1912   1.406       .  A
C1911      H1922   1.083       .  S
C1912      C1921   1.376       .  A
C1912      C1913   1.388       .  A
C1913      C1914   1.400       .  A
C1913      S1919   1.703       .  A
C1914      C1915   1.400       .  A
C1914      H1923   1.083       .  S
C1915      C1918   1.369       .  A
S1916      C1917   1.724       .  A
C1917      C1918   1.386       .  A
C1918      H1924   1.083       .  S
S1919      C1920   1.722       .  A
C1920      C1921   1.387       .  A
C1921      H1925   1.083       .  S
C1926      N1927   1.354       .  A
C1926      N1931   1.361       .  A
C1926      C2195   1.470       .  S
N1927      C1928   1.354       .  A
C1928      N1929   1.355       .  A
C1928      C2176   1.472       .  S
N1929      C1930   1.361       .  A
C1930      N1931   1.364       .  A
C1930      C1934   1.470       .  S
C1932      N1933   1.360       .  A
C1932      N1937   1.357       .  A
C1932      C2163   1.470       .  S
N1933      C1934   1.361       .  A
C1934      N1935   1.360       .  A
N1935      C1936   1.356       .  A
C1936      N1937   1.358       .  A
C1936      C2147   1.475       .  S
C1938      N1939   1.352       .  A
C1938      N1943   1.352       .  A
C1938      C2112   1.463       .  S
N1939      C1940   1.358       .  A
C1940      N1941   1.365       .  A
C1940      C2128   1.477       .  S
N1941      C1942   1.366       .  A
C1942      N1943   1.359       .  A
C1942      C1948   1.472       .  S
C1944      N1945   1.352       .  A
C1944      N1949   1.355       .  A
C1944      C2080   1.470       .  S
N1945      C1946   1.357       .  A
C1946      N1947   1.362       .  A
C1946      C2099   1.474       .  S
N1947      C1948   1.364       .  A
C1948      N1949   1.364       .  A
C1950      N1951   1.360   1_455  A
C1950      N1955   1.360       .  A
C1950      C2067   1.468       .  S
N1951      C1952   1.358       .  A
C1952      N1953   1.360       .  A
C1952      C1958   1.469       .  S
N1953      C1954   1.355   1_655  A
C1954      N1955   1.359       .  A
C1954      C2051   1.479       .  S
C1956      N1957   1.365       .  A
C1956      N1961   1.360       .  A
C1956      C2035   1.478       .  S
N1957      C1958   1.365       .  A
C1958      N1959   1.354       .  A
N1959      C1960   1.350       .  A
C1960      N1961   1.358       .  A
C1960      C2019   1.470       .  S
O1962     Mn1988   2.092       .  S
C1963      C2160   1.471       .  S
C1963      O1996   1.270       .  A
C1963      O1993   1.272       .  A
O1964     Mn1971   2.172       .  S
O1964     Mn1982   2.112       .  S
O1964     Mn1986   2.170       .  S
O1965     Mn1999   2.090       .  S
O1965      C1975   1.270       .  A
O1966     Mn1982   2.086       .  S
O1966      C1989   1.270       .  A
O1967     Mn1986   2.105       .  S
O1967      C1994   1.252       .  A
O1968     Mn1988   1.973       .  S
O1968      C1984   1.211       .  S
C1969      C2131   1.474       .  S
C1969      O1972   1.252       .  A
C1969      O1995   1.221       .  S
O1970     Mn1971   2.180       .  S
O1970     Mn2004   2.119       .  S
O1970     Mn1986   2.174       .  S
Mn1971     O1976   2.129       .  S
O1973     Mn1980   2.099       .  S
O1973      C1975   1.271       .  A
C1974      C2096   1.473       .  S
C1974      O2000   1.254       .  A
C1974      O1987   1.221       .  S
C1975      C2192   1.472       .  S
O1976      C2001   1.254       .  A
O1977     Mn1980   2.125       .  S
O1977     Mn1999   2.111       .  S
O1978     Mn1982   1.952       .  S
O1978     Mn2004   1.942       .  S
O1978      C2001   1.214       .  S
C1979      C2064   1.471       .  S
C1979      O1981   1.269       .  A
Mn1980     O1993   2.097       .  S
O1981     Mn2004   2.086       .  S
Mn1982     O1998   2.098       .  S
Mn1982     O1992   1.962       .  S
O1983      C1985   1.273       .  A
C1984      C2048   1.476       .  S
C1984      O2002   1.254       .  A
C1985      C2083   1.477       .  S
C1985      O1998   1.272       .  A
O1987     Mn1990   1.964       .  S
Mn1988     O2006   2.019       .  S
C1989      C2115   1.469       .  S
Mn1990     O1997   2.104       .  S
Mn1990     O2005   2.102       .  S
Mn1990     O1995   1.965       .  S
C1991      C2032   1.479       .  S
C1991      O2007   1.272       .  A
O1992     Mn2004   1.962       .  S
O1992      C1994   1.219       .  S
C1994      C2179   1.471       .  S
O1996     Mn1999   2.090       .  S
C2001      C2144   1.472       .  S
O2003      C2008   1.256       .  A
Mn2004     O2007   2.101       .  S
O2006      C2008   1.237       .  A
C2008      C2016   1.468       .  S
C2009      C2014   1.388       .  A
C2010      H2021   1.084       .  S
C2011      C2012   1.387       .  A
C2012      C2013   1.408       .  A
C2012      S2018   1.706   1_556  A
C2013      C2014   1.405       .  A
C2013      H2022   1.083   1_556  S
C2014      C2017   1.382       .  A
C2016      C2017   1.387       .  A
C2017      H2023   1.083       .  S
C2020      H2024   1.083       .  S
C2025      C2030   1.386       .  A
C2026      H2037   1.083       .  S
C2027      C2028   1.387       .  A
C2028      C2029   1.401       .  A
C2028      S2034   1.705       .  A
C2029      C2030   1.402       .  A
C2029      H2038   1.083       .  S
C2030      C2033   1.372       .  A
C2032      C2033   1.387       .  A
C2033      H2039   1.083       .  S
C2035      C2036   1.390       .  A
C2041      C2042   1.398       .  A
C2041      S2047   1.695       .  A
C2042      C2043   1.397       .  A
C2042      H2053   1.083       .  S
C2043      C2052   1.370       .  A
C2044      C2045   1.409       .  A
C2044      S2050   1.712       .  A
C2045      C2046   1.408       .  A
C2045      H2054   1.083       .  S
C2046      C2049   1.382       .  A
S2047      C2048   1.724   1_455  A
C2049      H2055   1.083       .  S
C2051      C2052   1.385       .  A
C2052      H2056   1.083       .  S
C2057      C2062   1.387   1_655  A
C2057      C2058   1.403       .  A
C2057      S2063   1.710       .  A
C2058      C2059   1.404       .  A
C2058      H2069   1.083       .  S
C2059      C2068   1.372       .  A
C2059      C2060   1.387   1_655  A
C2060      C2061   1.400       .  A
C2060      S2066   1.706       .  A
C2061      C2062   1.401       .  A
C2061      H2070   1.083       .  S
C2062      C2065   1.369       .  A
S2063      C2064   1.724       .  A
C2064      C2065   1.385   1_655  A
C2065      H2071   1.083       .  S
S2066      C2067   1.720       .  A
C2067      C2068   1.387   1_455  A
C2068      H2072   1.083       .  S
C2073      C2074   1.400       .  A
C2073      S2079   1.705       .  A
C2074      H2085   1.083       .  S
C2075      C2076   1.386       .  A
C2076      C2077   1.406       .  A
C2076      S2082   1.713       .  A
C2077      C2078   1.407       .  A
C2077      H2086   1.083       .  S
C2080      C2081   1.388       .  A
C2081      H2087   1.083       .  S
S2082      C2083   1.727       .  A
C2084      H2088   1.083       .  S
C2089      C2094   1.386       .  A
C2089      C2090   1.408       .  A
C2089      S2095   1.716       .  A
C2090      C2091   1.409       .  A
C2091      C2092   1.387       .  A
C2092      C2093   1.394       .  A
C2092      S2098   1.696       .  A
C2093      C2094   1.395       .  A
C2093      H2102   1.083       .  S
C2094      C2097   1.363       .  A
S2095      C2096   1.726       .  A
C2096      C2097   1.383       .  A
C2097      H2103   1.084       .  S
C2099      C2100   1.391       .  A
C2100      H2104   1.083       .  S
C2105      C2110   1.388       .  A
C2105      C2106   1.404       .  A
C2105      S2111   1.709   1_565  A
C2106      C2107   1.404       .  A
C2106      H2117   1.083   1_565  S
C2107      C2116   1.374       .  A
C2107      C2108   1.388       .  A
C2108      C2109   1.398       .  A
C2108      S2114   1.700       .  A
C2109      C2110   1.398       .  A
C2109      H2118   1.083       .  S
C2110      C2113   1.367       .  A
S2111      C2112   1.722   1_545  A
C2112      C2113   1.381       .  A
C2113      H2119   1.083       .  S
S2114      C2115   1.721       .  A
C2115      C2116   1.388       .  A
C2116      H2120   1.083   1_565  S
C2121      C2126   1.387       .  A
C2121      C2122   1.397       .  A
C2121      S2127   1.698       .  A
C2122      C2123   1.397       .  A
C2122      H2133   1.083       .  S
C2123      C2132   1.366       .  A
C2123      C2124   1.386       .  A
C2124      C2125   1.409       .  A
C2124      S2130   1.716       .  A
C2125      C2126   1.409       .  A
C2125      H2134   1.083       .  S
C2126      C2129   1.380       .  A
S2127      C2128   1.723       .  A
C2128      C2129   1.391       .  A
C2129      H2135   1.083       .  S
S2130      C2131   1.727       .  A
C2131      C2132   1.384       .  A
C2132      H2136   1.083       .  S
C2137      C2142   1.388       .  A
C2137      C2138   1.396       .  A
C2137      S2143   1.694       .  A
C2138      C2139   1.396       .  A
C2138      H2149   1.083       .  S
C2139      C2148   1.367       .  A
C2139      C2140   1.386       .  A
C2140      C2141   1.408       .  A
C2141      C2142   1.407       .  A
C2141      H2150   1.083   1_556  S
C2142      C2145   1.380       .  A
S2143      C2144   1.722       .  A
C2144      C2145   1.389       .  A
C2145      H2151   1.083       .  S
S2146      C2147   1.728       .  A
C2148      H2152   1.083       .  S
C2153      C2158   1.387       .  A
C2153      C2154   1.405       .  A
C2153      S2159   1.712       .  A
C2154      C2155   1.406       .  A
C2154      H2165   1.083       .  S
C2155      C2164   1.375   1_556  A
C2155      C2156   1.387       .  A
C2156      C2157   1.399       .  A
C2157      C2158   1.399       .  A
C2157      H2166   1.083       .  S
C2158      C2161   1.367       .  A
S2159      C2160   1.725       .  A
C2160      C2161   1.384       .  A
C2161      H2167   1.083       .  S
S2162      C2163   1.720       .  A
C2164      H2168   1.083       .  S
C2169      C2174   1.387       .  A
C2169      C2170   1.393       .  A
C2169      S2175   1.697       .  A
C2170      C2171   1.395       .  A
C2170      H2181   1.083       .  S
C2171      C2180   1.361       .  A
C2171      C2172   1.386       .  A
C2172      C2173   1.408       .  A
C2172      S2178   1.717       .  A
C2173      C2174   1.409       .  A
C2173      H2182   1.083       .  S
C2174      C2177   1.376       .  A
S2175      C2176   1.719       .  A
C2176      C2177   1.391       .  A
C2177      H2183   1.083       .  S
S2178      C2179   1.726       .  A
C2179      C2180   1.382       .  A
C2180      H2184   1.084       .  S
C2185      C2190   1.387       .  A
C2185      C2186   1.405       .  A
C2185      S2191   1.712       .  A
C2186      C2187   1.406       .  A
C2186      H2197   1.083       .  S
C2187      C2196   1.376       .  A
C2187      C2188   1.388       .  A
C2188      C2189   1.400       .  A
C2188      S2194   1.703       .  A
C2189      C2190   1.400       .  A
C2189      H2198   1.083       .  S
C2190      C2193   1.369       .  A
S2191      C2192   1.724       .  A
C2192      C2193   1.386       .  A
C2193      H2199   1.083       .  S
S2194      C2195   1.722       .  A
C2195      C2196   1.387       .  A
C2196      H2200   1.083       .  S
