geometry optimzed in LAMMPS
_audit_creation_date              2020-11-30 
_audit_creation_method            'lammps2cif' 
_symmetry_space_group_name_H-M    'P1' 
_symmetry_Int_Tables_number       1 
_symmetry_cell_setting            triclinic 
loop_ 
_symmetry_equiv_pos_as_xyz 
  x,y,z 
_cell_length_a                    47.27411139 
_cell_length_b                    47.579928289372546 
_cell_length_c                    39.984271795340106 
_cell_angle_alpha                 90.1354650886343 
_cell_angle_beta                  89.6991064251616 
_cell_angle_gamma                 119.79035464290361 
loop_ 
_atom_site_label 
_atom_site_type_symbol 
_atom_site_fract_x 
_atom_site_fract_y 
_atom_site_fract_z 
_atom_site_charge 
C1          C  0.33127474  0.16519320  0.22140459     0.45700
H2          H  0.33119468  0.16466235  0.19360442    -0.03300
C3          C  0.33172770  0.16649936  0.28675871     0.45800
H4          H  0.33183079  0.16686780  0.31454929    -0.03300
C5          C  0.33607397  0.19689787  0.23630054    -0.17000
C6          C  0.29986737  0.13888612  0.23739870    -0.16800
C7          C  0.35823043  0.16073963  0.23681338    -0.17100
C8          C  0.33577990  0.19755023  0.27066957    -0.17100
C9          C  0.30011732  0.13938281  0.27166188    -0.16700
C10         C  0.35868471  0.16150506  0.27109549    -0.17000
C11         C  0.16715971  0.33219666  0.21438681     0.45700
H12         H  0.16754313  0.33145230  0.18661311    -0.03300
C13         C  0.16619914  0.33382973  0.27973745     0.45800
H14         H  0.16570944  0.33450720  0.30751653    -0.03300
C15         C  0.13966593  0.30145289  0.23044540    -0.17000
C16         C  0.19826218  0.33631864  0.23083564    -0.16800
C17         C  0.16282150  0.35980913  0.22865626    -0.17100
C18         C  0.13922376  0.30230278  0.26468983    -0.17100
C19         C  0.19795035  0.33777987  0.26514278    -0.16700
C20         C  0.16226626  0.36053703  0.26296622    -0.17000
C21         C  0.35370703  0.34970064  0.13847223     0.80500
N22         N  0.35728679  0.32428509  0.14829868    -0.77800
C23         C  0.33410817  0.30039051  0.16742067     0.82900
N24         N  0.30770415  0.30217185  0.17735960    -0.77800
C25         C  0.30388118  0.32751589  0.16847666     0.83000
N26         N  0.32696606  0.35124029  0.14885884    -0.79500
C27         C  0.35507185  0.35648121  0.35783108     0.80500
N28         N  0.35525002  0.32879295  0.34919456    -0.77800
C29         C  0.33066573  0.30550064  0.33064918     0.82900
N30         N  0.30575816  0.31007474  0.32121806    -0.77800
C31         C  0.30525750  0.33742758  0.32939718     0.83000
N32         N  0.33008677  0.36080362  0.34740875    -0.79500
C33         C  0.14545141  0.49765957  0.35995904     0.80500
N34         N  0.17236348  0.02589584  0.35106479    -0.77800
C35         C  0.19582142  0.02583731  0.33146456     0.82900
N36         N  0.19217859  0.99728378  0.32059628    -0.77800
C37         C  0.16530217  0.46899775  0.32871265     0.83000
N38         N  0.14179051  0.46912759  0.34827922    -0.79500
C39         C  0.14863277  0.50145523  0.13916880     0.80500
N40         N  0.17409648  0.02960975  0.15075280    -0.77800
C41         C  0.19750373  0.02911662  0.16990756     0.82900
N42         N  0.19513921  0.50041434  0.17776913    -0.77800
C43         C  0.16993453  0.47209414  0.16694526     0.83000
N44         N  0.14664369  0.47271327  0.14761019    -0.79500
C45         C  0.49828772  0.14566479  0.14194427     0.80500
N46         N  0.46955036  0.14278532  0.15274168    -0.77800
C47         C  0.46946724  0.16598470  0.17256472     0.82900
N48         N  0.99818164  0.19181163  0.18159231    -0.77800
C49         C  0.02691830  0.19507067  0.17133085     0.83000
N50         N  0.02693853  0.17182628  0.15158064    -0.79500
C51         C  0.50151527  0.14758809  0.35910025     0.80500
N52         N  0.02972975  0.17390263  0.34872110    -0.77800
C53         C  0.02895646  0.19711944  0.32960106     0.82900
N54         N  0.99982070  0.19394531  0.32098390    -0.77800
C55         C  0.47157537  0.16768054  0.33065533     0.83000
N56         N  0.47247861  0.14448110  0.34952743    -0.79500
O57         O  0.04055929  0.48001265  0.02813490    -0.85100
O58         O  0.47514225  0.45023503  0.04380416    -0.82100
C59         C  0.44656188  0.44569922  0.04634670     0.98400
O60         O  0.43687461  0.45977113  0.02649835    -0.82200
O61         O  0.47190793  0.02480673  0.04290986    -0.84800
C62         C  0.99618862  0.05288836  0.04611725     1.02900
O63         O  0.02030346  0.06264934  0.02640527    -0.77600
O64         O  0.05190562  0.02893015  0.04285450    -0.77800
C65         C  0.05559912  0.00461446  0.04672295     1.02800
O66         O  0.02424762  0.47334613  0.45842284    -0.85100
O67         O  0.45916963  0.43883732  0.47407434    -0.82200
C68         C  0.44570846  0.44875565  0.45362355     0.98400
O69         O  0.44922175  0.47671811  0.45693009    -0.82200
O70         O  0.47816082  0.04146456  0.47356091    -0.84800
C71         C  0.00207343  0.05542376  0.45370294     1.02900
O72         O  0.02638184  0.05142188  0.45684480    -0.77600
O73         O  0.06189122  0.02191937  0.47354837    -0.77800
C74         C  0.05226625  0.49756346  0.45461625     1.02800
Cr75       Cr  0.49980056  0.46365654  0.00112459     1.93700
Cr76       Cr  0.46206406  0.50067602  0.50003345     1.93200
Cr77       Cr  0.03702638  0.03818972  0.49995161     1.39100
O78         O  0.49969477  0.50086148  0.00052179    -1.22800
C79         C  0.47294704  0.09985511  0.39718957    -0.21000
C80         C  0.50204166  0.12305463  0.38175759    -0.09100
C81         C  0.03109675  0.12284710  0.38918373     0.29800
C82         C  0.03082774  0.10025898  0.41183524    -0.21000
C83         C  0.00180659  0.07767626  0.42785409    -0.09100
C84         C  0.47273831  0.07757603  0.41997736     0.29800
F85         F  0.44392720  0.05604599  0.43436032    -0.19600
H86         H  0.45014654  0.09920600  0.39216271     0.18100
H87         H  0.05356214  0.10096233  0.41741597     0.18100
F88         F  0.05987615  0.14449972  0.37487125    -0.19600
C89         C  0.47008504  0.09071352  0.11512698    -0.21000
C90         C  0.49826754  0.12120830  0.11876215    -0.09100
C91         C  0.02586770  0.12835014  0.09913821     0.29800
C92         C  0.02490088  0.10580957  0.07611625    -0.21000
C93         C  0.99662105  0.07549821  0.07206422    -0.09100
C94         C  0.46922564  0.06799304  0.09219400     0.29800
F95         F  0.44141584  0.03900465  0.08944320    -0.19600
H96         H  0.44852113  0.08441009  0.12999185     0.18100
H97         H  0.04645350  0.11239475  0.06111354     0.18100
F98         F  0.05361185  0.15748482  0.10125176    -0.19600
C99         C  0.12712785  0.03215208  0.10661725    -0.21000
C100        C  0.12371035  0.50229877  0.11702148    -0.09100
C101        C  0.09671923  0.47356242  0.10528099     0.29800
C102        C  0.07459864  0.47481375  0.08313206    -0.21000
C103        C  0.07834557  0.00453957  0.07224248    -0.09100
C104        C  0.10473212  0.03335137  0.08458000     0.29800
F105        F  0.10969643  0.06267455  0.07442434    -0.19600
H106        H  0.14751403  0.05477276  0.11508219     0.18100
H107        H  0.05440922  0.45222286  0.07428924     0.18100
F108        F  0.09158456  0.44403477  0.11480457    -0.19600
C109        C  0.10567819  0.52527063  0.42484092    -0.21000
C110        C  0.07492611  0.49752374  0.42887878    -0.09100
C111        C  0.06706833  0.97008969  0.40907799     0.29800
C112        C  0.08994062  0.97039432  0.38648452    -0.21000
C113        C  0.12091027  0.49803149  0.38292725    -0.09100
C114        C  0.12840082  0.52565991  0.40224753     0.29800
F115        F  0.15802838  0.55289600  0.40026773    -0.19600
H116        H  0.11251551  0.54681164  0.43961171     0.18100
H117        H  0.08337952  0.94885249  0.37182897     0.18100
F118        F  0.03757172  0.94279931  0.41178635    -0.19600
C119        C  0.42156877  0.39564550  0.42345912    -0.21000
C120        C  0.42468818  0.42652771  0.42679188    -0.09100
C121        C  0.40672062  0.43500583  0.40513656     0.29800
C122        C  0.38493450  0.41244255  0.38217446    -0.21000
C123        C  0.38079266  0.38108624  0.37987101    -0.09100
C124        C  0.40007636  0.37322649  0.40028304     0.29800
F125        F  0.39729181  0.34344232  0.39906277    -0.19600
H126        H  0.43531726  0.38842743  0.43938338     0.18100
H127        H  0.37088538  0.41945785  0.36646351     0.18100
F128        F  0.40952331  0.46478800  0.40654091    -0.19600
C129        C  0.37211171  0.39853567  0.10197102    -0.21000
C130        C  0.37836753  0.37516042  0.11615450    -0.09100
C131        C  0.40790827  0.37607765  0.10799929     0.29800
C132        C  0.43019646  0.39955522  0.08602924    -0.21000
C133        C  0.42358989  0.42244855  0.07135340    -0.09100
C134        C  0.39426861  0.42179066  0.07972844     0.29800
F135        F  0.38684062  0.44355553  0.06646589    -0.19600
H136        H  0.34971919  0.39860066  0.10762853     0.18100
H137        H  0.45242872  0.39932296  0.07992771     0.18100
F138        F  0.41541706  0.35425633  0.12093721    -0.19600
C139        C  0.19620905  0.44251663  0.19098541    -0.21000
C140        C  0.16806044  0.44137213  0.17784272    -0.09100
C141        C  0.13855448  0.41158358  0.17819081     0.29800
C142        C  0.13715353  0.38426660  0.19317962    -0.21000
C143        C  0.16502489  0.38637394  0.20783084    -0.09100
C144        C  0.19471026  0.41538453  0.20588421     0.29800
F145        F  0.22196290  0.41784758  0.21987559    -0.19600
H146        H  0.21940463  0.46483251  0.19078254     0.18100
H147        H  0.11404421  0.36192482  0.19476889     0.18100
F148        F  0.11075795  0.40923149  0.16592090    -0.19600
C149        C  0.18870255  0.43350389  0.31817191    -0.21000
C150        C  0.16214704  0.43880043  0.31556219    -0.09100
C151        C  0.13466637  0.41715438  0.29709183     0.29800
C152        C  0.13446223  0.39121191  0.28035543    -0.21000
C153        C  0.16138238  0.38641747  0.28245212    -0.09100
C154        C  0.18818575  0.40723290  0.30212026     0.29800
F155        F  0.21452219  0.40311673  0.30443516    -0.19600
H156        H  0.21016175  0.45018018  0.33213244     0.18100
H157        H  0.11361213  0.37519509  0.26528187     0.18100
F158        F  0.10902813  0.42225732  0.29357984    -0.19600
C159        C  0.28273679  0.36773763  0.29917868    -0.21000
C160        C  0.27756710  0.34096224  0.31840320    -0.09100
C161        C  0.24562735  0.31534299  0.32346241     0.29800
C162        C  0.21943664  0.31558843  0.30783179    -0.21000
C163        C  0.22489048  0.34097928  0.28636441    -0.09100
C164        C  0.25651683  0.36769632  0.28301054     0.29800
F165        F  0.26208449  0.39311806  0.26324186    -0.19600
H166        H  0.30720700  0.38768840  0.29509240     0.18100
H167        H  0.19513721  0.29500352  0.31081662     0.18100
F168        F  0.23996861  0.28954042  0.34263413    -0.19600
C169        C  0.24413816  0.35703111  0.18943953    -0.21000
C170        C  0.22339020  0.33304633  0.21199553    -0.09100
C171        C  0.22761720  0.30639231  0.21810538     0.29800
C172        C  0.25338551  0.30465227  0.20331110    -0.21000
C173        C  0.27539688  0.32929667  0.18173839    -0.09100
C174        C  0.27009841  0.35531556  0.17438666     0.29800
F175        F  0.29018871  0.37936991  0.15327970    -0.19600
H176        H  0.24083309  0.37755699  0.18433713     0.18100
H177        H  0.25625746  0.28403241  0.20931814     0.18100
F178        F  0.20697558  0.28217190  0.23881225    -0.19600
C179        C  0.11291712  0.24780523  0.29133926    -0.21000
C180        C  0.11305535  0.27682728  0.28508339    -0.09100
C181        C  0.08675141  0.28042458  0.29567203     0.29800
C182        C  0.05994151  0.25469451  0.31127432    -0.21000
C183        C  0.05918165  0.22515361  0.31686873    -0.09100
C184        C  0.08625006  0.22210916  0.30736018     0.29800
F185        F  0.08607970  0.19373402  0.31157716    -0.19600
H186        H  0.13305513  0.24477812  0.28288880     0.18100
H187        H  0.03939449  0.25761461  0.31834540     0.18100
F188        F  0.08634197  0.30824950  0.28940804    -0.19600
C189        C  0.08590004  0.22170324  0.18715954    -0.21000
C190        C  0.05749145  0.22366329  0.18235871    -0.09100
C191        C  0.05777824  0.25263516  0.19069294     0.29800
C192        C  0.08540107  0.27841688  0.20473087    -0.21000
C193        C  0.11303708  0.27579526  0.21092410    -0.09100
C194        C  0.11350055  0.24757017  0.20167450     0.29800
F195        F  0.14004153  0.24456096  0.20800995    -0.19600
H196        H  0.08621748  0.19965324  0.18115089     0.18100
H197        H  0.08483089  0.30008619  0.21201182     0.18100
F198        F  0.03117695  0.25594821  0.18586698    -0.19600
C199        C  0.41647225  0.13534057  0.30527131    -0.21000
C200        C  0.44039044  0.16436474  0.31970693    -0.09100
C201        C  0.43549706  0.19116459  0.32096231     0.29800
C202        C  0.40770766  0.18931603  0.30680786    -0.21000
C203        C  0.38471668  0.16096840  0.29082089    -0.09100
C204        C  0.38886032  0.13368962  0.29062206     0.29800
F205        F  0.36675347  0.10589520  0.27537601    -0.19600
H206        H  0.41994488  0.11451128  0.30392834     0.18100
H207        H  0.40497834  0.21056385  0.30680393     0.18100
F208        F  0.45792445  0.21933199  0.33535733    -0.19600
C209        C  0.44011419  0.19254744  0.19636214    -0.21000
C210        C  0.43897941  0.16403525  0.18482205    -0.09100
C211        C  0.40951010  0.13443783  0.18751264     0.29800
C212        C  0.38251036  0.13345389  0.20331444    -0.21000
C213        C  0.38471312  0.16182543  0.21641231    -0.09100
C214        C  0.41328099  0.19147123  0.21198920     0.29800
F215        F  0.41556620  0.21925318  0.22391110    -0.19600
H216        H  0.46216474  0.21580978  0.19408555     0.18100
H217        H  0.36039349  0.11042908  0.20652176     0.18100
F218        F  0.40723499  0.10637161  0.17656309    -0.19600
C219        C  0.31300604  0.21641831  0.19271164    -0.21000
C220        C  0.33832872  0.22310022  0.21497850    -0.10600
C221        C  0.36458726  0.25484543  0.21790410     0.29800
C222        C  0.36447040  0.27993755  0.19999824    -0.21000
C223        C  0.33794171  0.27354280  0.17958103    -0.09100
C224        C  0.31252312  0.24156410  0.17542630     0.29800
F225        F  0.28669513  0.23490465  0.15562030    -0.19600
H226        H  0.29275246  0.19197994  0.19012778     0.18100
H227        H  0.38403584  0.30456912  0.20364223     0.18100
F228        F  0.38973471  0.26166013  0.23878648    -0.19600
C229        C  0.35836703  0.24429943  0.31077550    -0.21000
C230        C  0.33305082  0.22273340  0.28995843    -0.09100
C231        C  0.30576623  0.22656228  0.28554281     0.29800
C232        C  0.30478010  0.25275704  0.29997286    -0.21000
C233        C  0.33101320  0.27584782  0.31918065    -0.09100
C234        C  0.35752495  0.27077016  0.32525920     0.29800
F235        F  0.38315199  0.29182310  0.34412229    -0.19600
H236        H  0.37945386  0.24151498  0.31462534     0.18100
H237        H  0.28366491  0.25533767  0.29517456     0.18100
F238        F  0.28039400  0.20538252  0.26641489    -0.19600
C239        C  0.22176140  0.08456780  0.31714840    -0.21000
C240        C  0.22424064  0.05643707  0.32039171    -0.09100
C241        C  0.25329121  0.05725871  0.31051416     0.29800
C242        C  0.27866112  0.08523278  0.29643532    -0.21000
C243        C  0.27539267  0.11256576  0.29171279    -0.09100
C244        C  0.24712636  0.11246102  0.30257369     0.29800
F245        F  0.24350941  0.13871527  0.29767768    -0.19600
H246        H  0.19960494  0.08448099  0.32437574     0.18100
H247        H  0.30040601  0.08516828  0.28784788     0.18100
F248        F  0.25699304  0.03087286  0.31375589    -0.19600
C249        C  0.21999416  0.08468705  0.19394897    -0.21000
C250        C  0.22475276  0.05906180  0.18371540    -0.09100
C251        C  0.25506566  0.06104268  0.18958858     0.29800
C252        C  0.27960706  0.08764803  0.20626944    -0.21000
C253        C  0.27434545  0.11247449  0.21756809    -0.09100
C254        C  0.24460101  0.11120671  0.21106156     0.29800
F255        F  0.23921814  0.13522238  0.22183174    -0.19600
H256        H  0.19679168  0.08354016  0.18992248     0.18100
H257        H  0.30247845  0.08843911  0.21130934     0.18100
F258        F  0.26090878  0.03712353  0.17949521    -0.19600
C259        C  0.33127486  0.16519287  0.72140436     0.45700
H260        H  0.33119532  0.16466140  0.69360422    -0.03300
C261        C  0.33172673  0.16650066  0.78675858     0.45800
H262        H  0.33182904  0.16686949  0.81454913    -0.03300
C263        C  0.33607215  0.19689713  0.73629906    -0.17000
C264        C  0.29986779  0.13888535  0.73739846    -0.16800
C265        C  0.35823149  0.16074173  0.73681449    -0.17100
C266        C  0.33577731  0.19755042  0.77066811    -0.17100
C267        C  0.30011742  0.13938296  0.77166156    -0.16700
C268        C  0.35868481  0.16150720  0.77109673    -0.17000
C269        C  0.16716114  0.33219680  0.71438750     0.45700
H270        H  0.16754663  0.33145308  0.68661384    -0.03300
C271        C  0.16619549  0.33382810  0.77973804     0.45800
H272        H  0.16570355  0.33450501  0.80751706    -0.03300
C273        C  0.13966689  0.30145235  0.73044423    -0.17000
C274        C  0.19826265  0.33631913  0.73083912    -0.16800
C275        C  0.16282065  0.35980812  0.72865587    -0.17100
C276        C  0.13922194  0.30230106  0.76468862    -0.17100
C277        C  0.19794842  0.33777999  0.76514633    -0.16700
C278        C  0.16226291  0.36053511  0.76296573    -0.17000
C279        C  0.35370473  0.34969889  0.63847105     0.80500
N280        N  0.35728413  0.32428272  0.64829572    -0.77800
C281        C  0.33410645  0.30038848  0.66741864     0.82900
N282        N  0.30770373  0.30217077  0.67736045    -0.77800
C283        C  0.30388105  0.32751535  0.66847916     0.83000
N284        N  0.32696496  0.35123947  0.64886027    -0.79500
C285        C  0.35506940  0.35647976  0.85783430     0.80500
N286        N  0.35524665  0.32879146  0.84919589    -0.77800
C287        C  0.33066157  0.30550001  0.83065034     0.82900
N288        N  0.30575398  0.31007503  0.82122105    -0.77800
C289        C  0.30525446  0.33742818  0.82940203     0.83000
N290        N  0.33008452  0.36080317  0.84741357    -0.79500
C291        C  0.14544981  0.49765791  0.85995753     0.80500
N292        N  0.17236576  0.02589705  0.85106608    -0.77800
C293        C  0.19582243  0.02583848  0.83146384     0.82900
N294        N  0.19217821  0.99728518  0.82059310    -0.77800
C295        C  0.16529987  0.46899608  0.82871052     0.83000
N296        N  0.14178849  0.46912592  0.84827749    -0.79500
C297        C  0.14862600  0.50145139  0.63916975     0.80500
N298        N  0.17409711  0.02960937  0.65075104    -0.77800
C299        C  0.19750263  0.02911606  0.66990851     0.82900
N300        N  0.19513357  0.50041158  0.67776876    -0.77800
C301        C  0.16992903  0.47209113  0.66694552     0.83000
N302        N  0.14663757  0.47270966  0.64761097    -0.79500
C303        C  0.49828829  0.14566553  0.64194634     0.80500
N304        N  0.46955161  0.14278828  0.65274313    -0.77800
C305        C  0.46947015  0.16598946  0.67256490     0.82900
N306        N  0.99818561  0.19181593  0.68159112    -0.77800
C307        C  0.02692119  0.19507239  0.67132989     0.83000
N308        N  0.02693971  0.17182624  0.65158182    -0.79500
C309        C  0.50151391  0.14758181  0.85909509     0.80500
N310        N  0.02972753  0.17389705  0.84871513    -0.77800
C311        C  0.02895266  0.19711309  0.82959503     0.82900
N312        N  0.99981591  0.19393764  0.82097923    -0.77800
C313        C  0.47157156  0.16767211  0.83065157     0.83000
N314        N  0.47247650  0.14447342  0.84952317    -0.79500
O315        O  0.04055616  0.48001131  0.52813385    -0.85100
O316        O  0.47513930  0.45023361  0.54380285    -0.82100
C317        C  0.44655903  0.44569800  0.54634574     0.98400
O318        O  0.43687177  0.45977017  0.52649775    -0.82200
O319        O  0.47190895  0.02480877  0.54291210    -0.84800
C320        C  0.99618993  0.05289017  0.54611950     1.02900
O321        O  0.02030474  0.06265117  0.52640731    -0.77600
O322        O  0.05190727  0.02893132  0.54285332    -0.77800
C323        C  0.05560044  0.00461532  0.54672070     1.02800
O324        O  0.02424977  0.47334663  0.95842404    -0.85100
O325        O  0.45917198  0.43883686  0.97407572    -0.82200
C326        C  0.44571020  0.44875454  0.95362491     0.98400
O327        O  0.44922412  0.47671735  0.95693054    -0.82200
O328        O  0.47816070  0.04146144  0.97355797    -0.84800
C329        C  0.00207413  0.05542099  0.95370088     1.02900
O330        O  0.02638297  0.05141996  0.95684399    -0.77600
O331        O  0.06189321  0.02191888  0.97355028    -0.77800
C332        C  0.05226810  0.49756413  0.95461667     1.02800
Cr333      Cr  0.49979784  0.46365567  0.50112336     1.93700
Cr334      Cr  0.46206646  0.50067649  0.00003326     1.93200
Cr335      Cr  0.03702646  0.03818824  0.99995153     1.39100
O336        O  0.49969213  0.50086050  0.50052134    -1.22800
C337        C  0.47294568  0.09984393  0.89717833    -0.21000
C338        C  0.50204167  0.12304951  0.88175327    -0.09100
C339        C  0.03109890  0.12284923  0.88918765     0.29800
C340        C  0.03083035  0.10026191  0.91183993    -0.21000
C341        C  0.00180753  0.07767295  0.92785148    -0.09100
C342        C  0.47273739  0.07756579  0.91996705     0.29800
F343        F  0.44392480  0.05602937  0.93434281    -0.19600
H344        H  0.45014346  0.09918897  0.89214511     0.18100
H345        H  0.05356618  0.10097081  0.91742723     0.18100
F346        F  0.05987997  0.14450841  0.87488303    -0.19600
C347        C  0.47008478  0.09071466  0.61512817    -0.21000
C348        C  0.49826779  0.12120862  0.61876486    -0.09100
C349        C  0.02586895  0.12834987  0.59914274     0.29800
C350        C  0.02490243  0.10580976  0.57612061    -0.21000
C351        C  0.99662208  0.07549940  0.57206678    -0.09100
C352        C  0.46922580  0.06799447  0.59219510     0.29800
F353        F  0.44141556  0.03900667  0.58944271    -0.19600
H354        H  0.44852026  0.08441180  0.62999176     0.18100
H355        H  0.04645574  0.11239451  0.56111924     0.18100
F356        F  0.05361408  0.15748355  0.60125824    -0.19600
C357        C  0.12713241  0.03215232  0.60661033    -0.21000
C358        C  0.12370352  0.50229485  0.61702285    -0.09100
C359        C  0.09671681  0.47355867  0.60527578     0.29800
C360        C  0.07459682  0.47481048  0.58312658    -0.21000
C361        C  0.07834864  0.00454025  0.57223778    -0.09100
C362        C  0.10473661  0.03335195  0.58457349     0.29800
F363        F  0.10970200  0.06267522  0.57441667    -0.19600
H364        H  0.14751910  0.05477289  0.61507470     0.18100
H365        H  0.05441109  0.45221975  0.57427837     0.18100
F366        F  0.09158627  0.44403079  0.61479258    -0.19600
C367        C  0.10568143  0.52526873  0.92484429    -0.21000
C368        C  0.07492740  0.49752382  0.92887911    -0.09100
C369        C  0.06707228  0.97008973  0.90908126     0.29800
C370        C  0.08994439  0.97039470  0.88648765    -0.21000
C371        C  0.12090975  0.49803023  0.88292659    -0.09100
C372        C  0.12840323  0.52565729  0.90225044     0.29800
F373        F  0.15803296  0.55289100  0.90027383    -0.19600
H374        H  0.11252094  0.54680859  0.93961787     0.18100
H375        H  0.08338351  0.94885271  0.87183253     0.18100
F376        F  0.03757625  0.94279875  0.91179035    -0.19600
C377        C  0.42157017  0.39564415  0.92345947    -0.21000
C378        C  0.42468860  0.42652588  0.92679409    -0.09100
C379        C  0.40671859  0.43500317  0.90514134     0.29800
C380        C  0.38493194  0.41244010  0.88217958    -0.21000
C381        C  0.38079127  0.38108441  0.87987390    -0.09100
C382        C  0.40007685  0.37322510  0.90028361     0.29800
F383        F  0.39729327  0.34344140  0.89906128    -0.19600
H384        H  0.43532024  0.38842660  0.93938198     0.18100
H385        H  0.37088117  0.41945512  0.86647078     0.18100
F386        F  0.40951891  0.46478423  0.90654837    -0.19600
C387        C  0.37211006  0.39853547  0.60197198    -0.21000
C388        C  0.37836486  0.37515864  0.61615312    -0.09100
C389        C  0.40790456  0.37607453  0.60799580     0.29800
C390        C  0.43019270  0.39955229  0.58602594    -0.21000
C391        C  0.42358714  0.42244718  0.57135238    -0.09100
C392        C  0.39426702  0.42179078  0.57972965     0.29800
F393        F  0.38684043  0.44355767  0.56646985    -0.19600
H394        H  0.34971844  0.39860159  0.60763134     0.18100
H395        H  0.45242409  0.39931896  0.57992274     0.18100
F396        F  0.41541246  0.35425176  0.62093147    -0.19600
C397        C  0.19620556  0.44251515  0.69098470    -0.21000
C398        C  0.16805624  0.44136968  0.67784264    -0.09100
C399        C  0.13855091  0.41158066  0.67819080     0.29800
C400        C  0.13715120  0.38426409  0.69317917    -0.21000
C401        C  0.16502318  0.38637231  0.70782992    -0.09100
C402        C  0.19470802  0.41538341  0.70588301     0.29800
F403        F  0.22196126  0.41784735  0.71987383    -0.19600
H404        H  0.21940074  0.46483147  0.69078171     0.18100
H405        H  0.11404228  0.36192199  0.69476867     0.18100
F406        F  0.11075383  0.40922779  0.66592146    -0.19600
C407        C  0.18869926  0.43350168  0.81817070    -0.21000
C408        C  0.16214427  0.43879881  0.81556006    -0.09100
C409        C  0.13466377  0.41715336  0.79708907     0.29800
C410        C  0.13445923  0.39121053  0.78035324    -0.21000
C411        C  0.16137892  0.38641555  0.78245091    -0.09100
C412        C  0.18818218  0.40723058  0.80211930     0.29800
F413        F  0.21451826  0.40311389  0.80443471    -0.19600
H414        H  0.21015826  0.45017756  0.83213169     0.18100
H415        H  0.11360929  0.37519394  0.76527930     0.18100
F416        F  0.10902619  0.42225717  0.79357595    -0.19600
C417        C  0.28273574  0.36773785  0.79917970    -0.21000
C418        C  0.27756498  0.34096508  0.81840951    -0.09100
C419        C  0.24562445  0.31534999  0.82347553     0.29800
C420        C  0.21943374  0.31559532  0.80784449    -0.21000
C421        C  0.22488842  0.34098213  0.78637049    -0.09100
C422        C  0.25651574  0.36769684  0.78301203     0.29800
F423        F  0.26208424  0.39311623  0.76323907    -0.19600
H424        H  0.30720657  0.38768592  0.79508898     0.18100
H425        H  0.19513360  0.29501266  0.81083375     0.18100
F426        F  0.23996487  0.28955117  0.84265406    -0.19600
C427        C  0.24413332  0.35702602  0.68943680    -0.21000
C428        C  0.22339179  0.33304683  0.71200113    -0.09100
C429        C  0.22762484  0.30639765  0.71811918     0.29800
C430        C  0.25339328  0.30465785  0.70332517    -0.21000
C431        C  0.27539807  0.32929687  0.68174353    -0.09100
C432        C  0.27009339  0.35531032  0.67438365     0.29800
F433        F  0.29017653  0.37935851  0.65326702    -0.19600
H434        H  0.24082307  0.37754763  0.68432743     0.18100
H435        H  0.25627000  0.28404209  0.70933874     0.18100
F436        F  0.20698808  0.28218101  0.73883248    -0.19600
C437        C  0.11291715  0.24780499  0.79134159    -0.21000
C438        C  0.11305203  0.27682453  0.78508019    -0.09100
C439        C  0.08674430  0.28041843  0.79566216     0.29800
C440        C  0.05993393  0.25468722  0.81126278    -0.21000
C441        C  0.05917734  0.22514853  0.81686254    -0.09100
C442        C  0.08624977  0.22210792  0.80736119     0.29800
F443        F  0.08608401  0.19373576  0.81158485    -0.19600
H444        H  0.13305840  0.24478065  0.78289692     0.18100
H445        H  0.03938444  0.25760501  0.81832901     0.18100
F446        F  0.08633247  0.30824154  0.78939441    -0.19600
C447        C  0.08589896  0.22169823  0.68716892    -0.21000
C448        C  0.05749520  0.22366406  0.68235549    -0.09100
C449        C  0.05778678  0.25264080  0.69067617     0.29800
C450        C  0.08540969  0.27842240  0.70471398    -0.21000
C451        C  0.11304033  0.27579511  0.71092090    -0.09100
C452        C  0.11349916  0.24756474  0.70168433     0.29800
F453        F  0.14003489  0.24455033  0.70803322    -0.19600
H454        H  0.08621213  0.19964411  0.68117064     0.18100
H455        H  0.08484304  0.30009573  0.71198528     0.18100
F456        F  0.03118975  0.25595832  0.68583748    -0.19600
C457        C  0.41647312  0.13533686  0.80525706    -0.21000
C458        C  0.44038557  0.16435557  0.81970680    -0.09100
C459        C  0.43548574  0.19115077  0.82098051     0.29800
C460        C  0.40769696  0.18930486  0.80682723    -0.21000
C461        C  0.38471316  0.16096449  0.79082367    -0.09100
C462        C  0.38886147  0.13368841  0.79061000     0.29800
F463        F  0.36675944  0.10589944  0.77535171    -0.19600
H464        H  0.41995028  0.11451082  0.80390156     0.18100
H465        H  0.40496326  0.21055011  0.80683691     0.18100
F466        F  0.45790661  0.21931135  0.83539220    -0.19600
C467        C  0.44012370  0.19255156  0.69638212    -0.21000
C468        C  0.43898326  0.16404186  0.68482381    -0.09100
C469        C  0.40950816  0.13444765  0.68749646     0.29800
C470        C  0.38250810  0.13346318  0.70329810    -0.21000
C471        C  0.38471630  0.16183077  0.71641444    -0.09100
C472        C  0.41329038  0.19147467  0.71200947     0.29800
F473        F  0.41558064  0.21925357  0.72394815    -0.19600
H474        H  0.46217843  0.21581218  0.69411969     0.18100
H475        H  0.36038647  0.11044000  0.70649108     0.18100
F476        F  0.40722650  0.10638393  0.67652835    -0.19600
C477        C  0.31300480  0.21641642  0.69270849    -0.21000
C478        C  0.33832728  0.22309868  0.71497574    -0.10600
C479        C  0.36458603  0.25484370  0.71790085     0.29800
C480        C  0.36446918  0.27993570  0.69999489    -0.21000
C481        C  0.33794041  0.27354080  0.67957779    -0.09100
C482        C  0.31252198  0.24156208  0.67542282     0.29800
F483        F  0.28669418  0.23490254  0.65561651    -0.19600
H484        H  0.29275119  0.19197801  0.69012485     0.18100
H485        H  0.38403457  0.30456728  0.70363889     0.18100
F486        F  0.38973354  0.26165827  0.73878307    -0.19600
C487        C  0.35836037  0.24429638  0.81077798    -0.21000
C488        C  0.33304728  0.22273379  0.78995586    -0.09100
C489        C  0.30576479  0.22656550  0.78553586     0.29800
C490        C  0.30477847  0.25276020  0.79996616    -0.21000
C491        C  0.33100876  0.27584748  0.81917954    -0.09100
C492        C  0.35751767  0.27076641  0.82526270     0.29800
F493        F  0.38314125  0.29181499  0.84413233    -0.19600
H494        H  0.37944533  0.24150961  0.81463161     0.18100
H495        H  0.28366529  0.25534328  0.79516424     0.18100
F496        F  0.28039448  0.20538810  0.76640437    -0.19600
C497        C  0.22176263  0.08456883  0.81714896    -0.21000
C498        C  0.22424166  0.05643797  0.82039145    -0.09100
C499        C  0.25329172  0.05725906  0.81051300     0.29800
C500        C  0.27866155  0.08523301  0.79643412    -0.21000
C501        C  0.27539328  0.11256620  0.79171259    -0.09100
C502        C  0.24712750  0.11246194  0.80257427     0.29800
F503        F  0.24351088  0.13871646  0.79767874    -0.19600
H504        H  0.19960636  0.08448216  0.82437677     0.18100
H505        H  0.30040615  0.08516833  0.78784588     0.18100
F506        F  0.25699297  0.03087275  0.81375365    -0.19600
C507        C  0.21999188  0.08468510  0.69395342    -0.21000
C508        C  0.22475122  0.05906109  0.68371684    -0.09100
C509        C  0.25506493  0.06104294  0.68958683     0.29800
C510        C  0.27960687  0.08764826  0.70626714    -0.21000
C511        C  0.27434513  0.11247391  0.71756817    -0.09100
C512        C  0.24459944  0.11120489  0.71106535     0.29800
F513        F  0.23921616  0.13521948  0.72183844    -0.19600
H514        H  0.19678861  0.08353715  0.68992957     0.18100
H515        H  0.30247871  0.08843973  0.71130500     0.18100
F516        F  0.26090841  0.03712479  0.67949053    -0.19600
C517        C  0.33127837  0.66519619  0.22140747     0.45700
H518        H  0.33119867  0.66466554  0.19360731    -0.03300
C519        C  0.33173078  0.66650201  0.28676160     0.45800
H520        H  0.33183360  0.66687028  0.31455216    -0.03300
C521        C  0.33607725  0.69690071  0.23630359    -0.17000
C522        C  0.29987086  0.63888881  0.23740104    -0.16800
C523        C  0.35823387  0.66074252  0.23681661    -0.17100
C524        C  0.33578281  0.69755275  0.27067262    -0.17100
C525        C  0.30012056  0.63938550  0.27166425    -0.16700
C526        C  0.35868821  0.66150819  0.27109866    -0.17000
C527        C  0.16715891  0.83219502  0.21438560     0.45700
H528        H  0.16754094  0.83145029  0.18661185    -0.03300
C529        C  0.16620160  0.83382894  0.27973624     0.45800
H530        H  0.16571330  0.83450681  0.30751535    -0.03300
C531        C  0.13966738  0.80145055  0.23044541    -0.17000
C532        C  0.19826298  0.83631936  0.23083254    -0.16800
C533        C  0.16281921  0.85980637  0.22865572    -0.17100
C534        C  0.13922686  0.80230082  0.26468992    -0.17100
C535        C  0.19795300  0.83778114  0.26513970    -0.16700
C536        C  0.16226566  0.86053467  0.26296571    -0.17000
C537        C  0.35370671  0.84970014  0.13847073     0.80500
N538        N  0.35728771  0.82428587  0.14829931    -0.77800
C539        C  0.33410975  0.80039208  0.16742256     0.82900
N540        N  0.30770512  0.80217283  0.17736029    -0.77800
C541        C  0.30388088  0.82751551  0.16847485     0.83000
N542        N  0.32696514  0.85123918  0.14885606    -0.79500
C543        C  0.35507515  0.85648476  0.35783039     0.80500
N544        N  0.35525274  0.82879592  0.34919533    -0.77800
C545        C  0.33066857  0.80550347  0.33064998     0.82900
N546        N  0.30576178  0.81007813  0.32121723    -0.77800
C547        C  0.30526177  0.83743161  0.32939469     0.83000
N548        N  0.33009079  0.86080769  0.34740648    -0.79500
C549        C  0.14544979  0.99765647  0.35995912     0.80500
N550        N  0.17236572  0.52589890  0.35106569    -0.77800
C551        C  0.19582360  0.52584020  0.33146541     0.82900
N552        N  0.19218003  0.49728664  0.32059631    -0.77800
C553        C  0.16530107  0.96899468  0.32871337     0.83000
N554        N  0.14178929  0.96912443  0.34827998    -0.79500
C555        C  0.14862636  0.00145212  0.13917297     0.80500
N556        N  0.17410178  0.52961287  0.15075030    -0.77800
C557        C  0.19750799  0.52911975  0.16990695     0.82900
N558        N  0.19513491  0.00041116  0.17776954    -0.77800
C559        C  0.16992929  0.97209096  0.16694711     0.83000
N560        N  0.14663736  0.97271011  0.14761390    -0.79500
C561        C  0.49828795  0.64566027  0.14195057     0.80500
N562        N  0.46955040  0.64278054  0.15274759    -0.77800
C563        C  0.46946700  0.66598047  0.17256947     0.82900
N564        N  0.99818117  0.69180824  0.18159647    -0.77800
C565        C  0.02691797  0.69506715  0.17133555     0.83000
N566        N  0.02693844  0.67182234  0.15158638    -0.79500
C567        C  0.50151731  0.64758799  0.35910212     0.80500
N568        N  0.02973249  0.67390174  0.34872323    -0.77800
C569        C  0.02896058  0.69711994  0.32960451     0.82900
N570        N  0.99982551  0.69394797  0.32098817    -0.77800
C571        C  0.47157937  0.66768397  0.33065924     0.83000
N572        N  0.47248130  0.64448310  0.34953012    -0.79500
O573        O  0.04055797  0.98001241  0.02813554    -0.85100
O574        O  0.47514087  0.95023404  0.04380249    -0.82100
C575        C  0.44656047  0.94569806  0.04634449     0.98400
O576        O  0.43687360  0.95977045  0.02649633    -0.82200
O577        O  0.47190892  0.52480704  0.04291072    -0.84800
C578        C  0.99618987  0.55288845  0.04611863     1.02900
O579        O  0.02030477  0.56264973  0.02640659    -0.77600
O580        O  0.05190825  0.52893091  0.04285343    -0.77800
C581        C  0.05560217  0.50461536  0.04672108     1.02800
O582        O  0.02424790  0.97334733  0.45842381    -0.85100
O583        O  0.45917008  0.93883964  0.47407611    -0.82200
C584        C  0.44570953  0.94875825  0.45362488     0.98400
O585        O  0.44922328  0.97672090  0.45693114    -0.82200
O586        O  0.47815894  0.54146163  0.47356012    -0.84800
C587        C  0.00207175  0.55542052  0.45370219     1.02900
O588        O  0.02638009  0.55141855  0.45684417    -0.77600
O589        O  0.06189050  0.52191766  0.47354909    -0.77800
C590        C  0.05226656  0.99756443  0.45461645     1.02800
Cr591      Cr  0.49980014  0.96365637  0.00112371     1.93700
Cr592      Cr  0.46206579  0.00067893  0.50003441     1.93200
Cr593      Cr  0.03702449  0.53818724  0.49995126     1.39100
O594        O  0.49969410  0.00086113  0.00052100    -1.22800
C595        C  0.47294670  0.59985130  0.39718659    -0.21000
C596        C  0.50204249  0.62305321  0.38175835    -0.09100
C597        C  0.03109783  0.62284729  0.38918769     0.29800
C598        C  0.03082785  0.60025831  0.41183841    -0.21000
C599        C  0.00180556  0.57767326  0.42785359    -0.09100
C600        C  0.47273702  0.57757146  0.41997399     0.29800
F601        F  0.44392497  0.55603927  0.43435378    -0.19600
H602        H  0.45014602  0.59920092  0.39215719     0.18100
H603        H  0.05356242  0.60096305  0.41742175     0.18100
F604        F  0.05987851  0.64450261  0.37487949    -0.19600
C605        C  0.47008640  0.59070959  0.11513239    -0.21000
C606        C  0.49826844  0.62120456  0.11876796    -0.09100
C607        C  0.02586841  0.62834793  0.09914300     0.29800
C608        C  0.02490176  0.60580865  0.07611945    -0.21000
C609        C  0.99662227  0.57549721  0.07206681    -0.09100
C610        C  0.46922716  0.56799043  0.09219780     0.29800
F611        F  0.44141772  0.53900176  0.08944667    -0.19600
H612        H  0.44852266  0.58440510  0.12999798     0.18100
H613        H  0.04645419  0.61239489  0.06111601     0.18100
F614        F  0.05361221  0.65748288  0.10125705    -0.19600
C615        C  0.12713723  0.53215471  0.10660738    -0.21000
C616        C  0.12370330  0.00229597  0.11702706    -0.09100
C617        C  0.09671437  0.97355988  0.10528295     0.29800
C618        C  0.07459480  0.97481173  0.08313306    -0.21000
C619        C  0.07835086  0.50454130  0.07223840    -0.09100
C620        C  0.10474088  0.53335348  0.08457054     0.29800
F621        F  0.10970798  0.56267629  0.07440970    -0.19600
H622        H  0.14752563  0.55477553  0.11506859     0.18100
H623        H  0.05440761  0.95222105  0.07428678     0.18100
F624        F  0.09158130  0.94403200  0.11480330    -0.19600
C625        C  0.10567984  0.02526851  0.42484348    -0.21000
C626        C  0.07492605  0.99752347  0.42887917    -0.09100
C627        C  0.06707045  0.47008941  0.40907952     0.29800
C628        C  0.08994317  0.47039520  0.38648599    -0.21000
C629        C  0.12090923  0.99802890  0.38292781    -0.09100
C630        C  0.12840201  0.02565660  0.40225034     0.29800
F631        F  0.15803143  0.05289064  0.40027318    -0.19600
H632        H  0.11251896  0.04680896  0.43961592     0.18100
H633        H  0.08338364  0.44885274  0.37183219     0.18100
F634        F  0.03757557  0.44279724  0.41179008    -0.19600
C635        C  0.42157179  0.89564909  0.42345879    -0.21000
C636        C  0.42468972  0.92653058  0.42679287    -0.09100
C637        C  0.40672134  0.93500833  0.40513832     0.29800
C638        C  0.38493601  0.91244540  0.38217554    -0.21000
C639        C  0.38079555  0.88108972  0.37987075    -0.09100
C640        C  0.40008002  0.87323037  0.40028210     0.29800
F641        F  0.39729675  0.84344676  0.39906075    -0.19600
H642        H  0.43532094  0.88843136  0.43938246     0.18100
H643        H  0.37088620  0.91946042  0.36646530     0.18100
F644        F  0.40952215  0.96478964  0.40654440    -0.19600
C645        C  0.37210814  0.89853131  0.10196486    -0.21000
C646        C  0.37836647  0.87515923  0.11615217    -0.09100
C647        C  0.40790907  0.87607914  0.10800033     0.29800
C648        C  0.43019694  0.89955649  0.08602993    -0.21000
C649        C  0.42358818  0.92244696  0.07135062    -0.09100
C650        C  0.39426479  0.92178616  0.07972214     0.29800
F651        F  0.38683448  0.94354807  0.06645613    -0.19600
H652        H  0.34971400  0.89859400  0.10761962     0.18100
H653        H  0.45243089  0.89932649  0.07993123     0.18100
F654        F  0.41542017  0.85426091  0.12094223    -0.19600
C655        C  0.19620507  0.94251315  0.19098365    -0.21000
C656        C  0.16805558  0.94136898  0.17784394    -0.09100
C657        C  0.13854928  0.91158083  0.17819435     0.29800
C658        C  0.13714903  0.88426387  0.19318239    -0.21000
C659        C  0.16502138  0.88637090  0.20783072    -0.09100
C660        C  0.19470696  0.91538107  0.20588177     0.29800
F661        F  0.22196055  0.91784379  0.21987034    -0.19600
H662        H  0.21940089  0.96482876  0.19077898     0.18100
H663        H  0.11403958  0.86192239  0.19477344     0.18100
F664        F  0.11075192  0.90922928  0.16592765    -0.19600
C665        C  0.18870244  0.93350178  0.31817115    -0.21000
C666        C  0.16214614  0.93879727  0.31556317    -0.09100
C667        C  0.13466458  0.91714998  0.29709458     0.29800
C668        C  0.13446069  0.89120795  0.28035749    -0.21000
C669        C  0.16138171  0.88641479  0.28245216    -0.09100
C670        C  0.18818569  0.90723091  0.30211922     0.29800
F671        F  0.21452261  0.90311539  0.30443287    -0.19600
H672        H  0.21016219  0.95017876  0.33213057     0.18100
H673        H  0.11360992  0.87519030  0.26528509     0.18100
F674        F  0.10902500  0.92225115  0.29358506    -0.19600
C675        C  0.28274162  0.86773937  0.29917074    -0.21000
C676        C  0.27757175  0.84096632  0.31839955    -0.09100
C677        C  0.24563184  0.81534865  0.32346205     0.29800
C678        C  0.21944091  0.81559308  0.30783075    -0.21000
C679        C  0.22489453  0.84098153  0.28635986    -0.09100
C680        C  0.25652133  0.86769725  0.28300240     0.29800
F681        F  0.26208899  0.89311709  0.26323063    -0.19600
H682        H  0.30721200  0.88768886  0.29508181     0.18100
H683        H  0.19514128  0.79500921  0.31081840     0.18100
F684        F  0.23997302  0.78954845  0.34263787    -0.19600
C685        C  0.24413737  0.85703047  0.18943500    -0.21000
C686        C  0.22338955  0.83304600  0.21199127    -0.09100
C687        C  0.22761591  0.80639162  0.21810112     0.29800
C688        C  0.25338412  0.80465132  0.20330718    -0.21000
C689        C  0.27539591  0.82929581  0.18173488    -0.09100
C690        C  0.27009752  0.85531464  0.17438241     0.29800
F691        F  0.29018801  0.87936891  0.15327546    -0.19600
H692        H  0.24083255  0.87755647  0.18433255     0.18100
H693        H  0.25625587  0.78403139  0.20931446     0.18100
F694        F  0.20697415  0.78217152  0.23880825    -0.19600
C695        C  0.11291736  0.74779999  0.29133303    -0.21000
C696        C  0.11305969  0.77682529  0.28508480    -0.09100
C697        C  0.08676059  0.78042649  0.29568289     0.29800
C698        C  0.05995070  0.75469696  0.31128581    -0.21000
C699        C  0.05918651  0.72515300  0.31687225    -0.09100
C700        C  0.08625069  0.72210467  0.30735535     0.29800
F701        F  0.08607619  0.69372677  0.31156561    -0.19600
H702        H  0.13305175  0.74477002  0.28287586     0.18100
H703        H  0.03940694  0.75761993  0.31836369     0.18100
F704        F  0.08635542  0.80825487  0.28942722    -0.19600
C705        C  0.08590037  0.72170063  0.18716092    -0.21000
C706        C  0.05749120  0.72366011  0.18236237    -0.09100
C707        C  0.05777803  0.75263191  0.19069702     0.29800
C708        C  0.08540135  0.77841386  0.20473386    -0.21000
C709        C  0.11303785  0.77579262  0.21092525    -0.09100
C710        C  0.11350146  0.74756787  0.20167450     0.29800
F711        F  0.14004320  0.74455929  0.20800748    -0.19600
H712        H  0.08621800  0.69965088  0.18115142     0.18100
H713        H  0.08483127  0.80008311  0.21201536     0.18100
F714        F  0.03117651  0.75594477  0.18587226    -0.19600
C715        C  0.41647319  0.63534336  0.30528130    -0.21000
C716        C  0.44039489  0.66436954  0.31971048    -0.09100
C717        C  0.43550484  0.69117167  0.32095953     0.29800
C718        C  0.40771564  0.68932328  0.30680453    -0.21000
C719        C  0.38472098  0.66097308  0.29082416    -0.09100
C720        C  0.38886108  0.63369223  0.29063221     0.29800
F721        F  0.36675045  0.60589526  0.27539305    -0.19600
H722        H  0.41994291  0.61451210  0.30394340     0.18100
H723        H  0.40498891  0.71057265  0.30679541     0.18100
F724        F  0.45793499  0.71934086  0.33534929    -0.19600
C725        C  0.44011079  0.69254620  0.19635088    -0.21000
C726        C  0.43897907  0.66403138  0.18482499    -0.09100
C727        C  0.40951342  0.63443233  0.18752906     0.29800
C728        C  0.38251469  0.63344999  0.20333123    -0.21000
C729        C  0.38471471  0.66182497  0.21641529    -0.09100
C730        C  0.41327822  0.69147171  0.21197769     0.29800
F731        F  0.41556018  0.71925669  0.22388546    -0.19600
H732        H  0.46215867  0.71580939  0.19406325     0.18100
H733        H  0.36040100  0.61042444  0.20654946     0.18100
F734        F  0.40724170  0.60636372  0.17659309    -0.19600
C735        C  0.31300935  0.71642059  0.19271414    -0.21000
C736        C  0.33833164  0.72310304  0.21498173    -0.10600
C737        C  0.36458928  0.75484868  0.21790827     0.29800
C738        C  0.36447199  0.77994055  0.20000235    -0.21000
C739        C  0.33794379  0.77354506  0.17958407    -0.09100
C740        C  0.31252601  0.74156611  0.17542872     0.29800
F741        F  0.28669848  0.73490610  0.15562176    -0.19600
H742        H  0.29275638  0.69198196  0.19012964     0.18100
H743        H  0.38403677  0.80457233  0.20364683     0.18100
F744        F  0.38973647  0.76166396  0.23879124    -0.19600
C745        C  0.35836820  0.74430029  0.31078044    -0.21000
C746        C  0.33305307  0.72273538  0.28996167    -0.09100
C747        C  0.30576897  0.72656482  0.28554478     0.29800
C748        C  0.30478284  0.75275970  0.29997438    -0.21000
C749        C  0.33101541  0.77584997  0.31918303    -0.09100
C750        C  0.35752613  0.77077118  0.32526370     0.29800
F751        F  0.38315225  0.79182322  0.34412836    -0.19600
H752        H  0.37945428  0.74151485  0.31463187     0.18100
H753        H  0.28366823  0.75534097  0.29517477     0.18100
F754        F  0.28039735  0.70538564  0.26641585    -0.19600
C755        C  0.22176789  0.58457293  0.31715689    -0.21000
C756        C  0.22424371  0.55643968  0.32039323    -0.09100
C757        C  0.25329147  0.55725871  0.31050896     0.29800
C758        C  0.27866150  0.58523257  0.29643028    -0.21000
C759        C  0.27539622  0.61256814  0.29171479    -0.09100
C760        C  0.24713319  0.61246618  0.30258252     0.29800
F761        F  0.24351941  0.63872317  0.29769320    -0.19600
H762        H  0.19961374  0.58448831  0.32438943     0.18100
H763        H  0.30040388  0.58516608  0.28783748     0.18100
F764        F  0.25699038  0.53087051  0.31374343    -0.19600
C765        C  0.21999550  0.58468745  0.19395495    -0.21000
C766        C  0.22475622  0.55906484  0.18371615    -0.09100
C767        C  0.25507062  0.56104786  0.18958546     0.29800
C768        C  0.27961209  0.58765333  0.20626638    -0.21000
C769        C  0.27434870  0.61247731  0.21756997    -0.09100
C770        C  0.24460215  0.61120681  0.21106832     0.29800
F771        F  0.23921724  0.63521972  0.22184370    -0.19600
H772        H  0.19679168  0.58353855  0.18993191     0.18100
H773        H  0.30248495  0.58844631  0.21130254     0.18100
F774        F  0.26091523  0.53713073  0.17948799    -0.19600
C775        C  0.33127352  0.66519166  0.72140165     0.45700
H776        H  0.33119383  0.66466000  0.69360151    -0.03300
C777        C  0.33172540  0.66649974  0.78675581     0.45800
H778        H  0.33182789  0.66686878  0.81454637    -0.03300
C779        C  0.33607196  0.69689639  0.73629610    -0.17000
C780        C  0.29986607  0.63888509  0.73739597    -0.16800
C781        C  0.35822939  0.66073933  0.73681180    -0.17100
C782        C  0.33577744  0.69755001  0.77066512    -0.17100
C783        C  0.30011559  0.63938271  0.77165907    -0.16700
C784        C  0.35868247  0.66150478  0.77109400    -0.17000
C785        C  0.16715950  0.83219474  0.71438784     0.45700
H786        H  0.16754507  0.83145100  0.68661417    -0.03300
C787        C  0.16619357  0.83382594  0.77973839     0.45800
H788        H  0.16570155  0.83450291  0.80751741    -0.03300
C789        C  0.13966495  0.80145046  0.73044447    -0.17000
C790        C  0.19826082  0.83631656  0.73083958    -0.16800
C791        C  0.16281920  0.85980627  0.72865615    -0.17100
C792        C  0.13921979  0.80229911  0.76468883    -0.17100
C793        C  0.19794633  0.83777716  0.76514678    -0.16700
C794        C  0.16226140  0.86053327  0.76296599    -0.17000
C795        C  0.35370471  0.84969951  0.63847121     0.80500
N796        N  0.35728373  0.82428277  0.64829466    -0.77800
C797        C  0.33410542  0.80038754  0.66741623     0.82900
N798        N  0.30770246  0.80216943  0.67735805    -0.77800
C799        C  0.30388015  0.82751457  0.66847818     0.83000
N800        N  0.32696469  0.85123967  0.64886055    -0.79500
C801        C  0.35506816  0.85647831  0.85783409     0.80500
N802        N  0.35524652  0.82879077  0.84919462    -0.77800
C803        C  0.33066146  0.80549897  0.83064932     0.82900
N804        N  0.30575288  0.81007289  0.82122134    -0.77800
C805        C  0.30525212  0.83742514  0.82940342     0.83000
N806        N  0.33008216  0.86080057  0.84741471    -0.79500
C807        C  0.14545193  0.99765775  0.85995998     0.80500
N808        N  0.17236386  0.52589711  0.85106385    -0.77800
C809        C  0.19582145  0.52583835  0.83146331     0.82900
N810        N  0.19217789  0.49728487  0.82059407    -0.77800
C811        C  0.16530048  0.96899626  0.82870978     0.83000
N812        N  0.14179001  0.96912589  0.84827856    -0.79500
C813        C  0.14862845  0.00145188  0.63916899     0.80500
N814        N  0.17409496  0.52960924  0.65075053    -0.77800
C815        C  0.19750171  0.52911660  0.66990636     0.82900
N816        N  0.19513357  0.00041062  0.67777105    -0.77800
C817        C  0.16992931  0.97209054  0.66694651     0.83000
N818        N  0.14663907  0.97270979  0.64761051    -0.79500
C819        C  0.49828701  0.64566498  0.64194282     0.80500
N820        N  0.46955034  0.64278779  0.65273954    -0.77800
C821        C  0.46946881  0.66598834  0.67256219     0.82900
N822        N  0.99818420  0.69181426  0.68158930    -0.77800
C823        C  0.02691987  0.69507093  0.67132809     0.83000
N824        N  0.02693851  0.67182528  0.65157915    -0.79500
C825        C  0.50151045  0.64757828  0.85909255     0.80500
N826        N  0.02972388  0.67389323  0.84871162    -0.77800
C827        C  0.02894858  0.69710874  0.82959088     0.82900
N828        N  0.99981160  0.69393293  0.82097570    -0.77800
C829        C  0.47156747  0.66766799  0.83064938     0.83000
N830        N  0.47247279  0.64446979  0.84952146    -0.79500
O831        O  0.04055724  0.98001287  0.52813434    -0.85100
O832        O  0.47514045  0.95023646  0.54380446    -0.82100
C833        C  0.44656017  0.94570088  0.54634740     0.98400
O834        O  0.43687304  0.95977313  0.52649925    -0.82200
O835        O  0.47190691  0.52480568  0.54291141    -0.84800
C836        C  0.99618762  0.55288734  0.54611832     1.02900
O837        O  0.02030212  0.56264845  0.52640582    -0.77600
O838        O  0.05190434  0.52892903  0.54285357    -0.77800
C839        C  0.05559796  0.50461333  0.54672111     1.02800
O840        O  0.02425072  0.97334711  0.95842412    -0.85100
O841        O  0.45917245  0.93883710  0.97407344    -0.82200
C842        C  0.44571049  0.94875475  0.95362280     0.98400
O843        O  0.44922388  0.97671735  0.95692890    -0.82200
O844        O  0.47816068  0.54146143  0.97355882    -0.84800
C845        C  0.00207359  0.55542086  0.95370119     1.02900
O846        O  0.02638275  0.55142041  0.95684432    -0.77600
O847        O  0.06189254  0.52191889  0.97354874    -0.77800
C848        C  0.05226938  0.99756433  0.95461801     1.02800
Cr849      Cr  0.49979866  0.96365779  0.50112459     1.93700
Cr850      Cr  0.46206583  0.00067620  0.00003201     1.93200
Cr851      Cr  0.03702710  0.53818865  0.99995143     1.39100
O852        O  0.49969371  0.00086306  0.50052223    -1.22800
C853        C  0.47294382  0.59984405  0.89718053    -0.21000
C854        C  0.50203870  0.62304655  0.88175119    -0.09100
C855        C  0.03109529  0.62284366  0.88918155     0.29800
C856        C  0.03082753  0.60025740  0.91183481    -0.21000
C857        C  0.00180600  0.57767174  0.92785092    -0.09100
C858        C  0.47273622  0.57756662  0.91996977     0.29800
F859        F  0.44392461  0.55603303  0.93434936    -0.19600
H860        H  0.45014207  0.59919104  0.89215025     0.18100
H861        H  0.05356304  0.60096441  0.91741900     0.18100
F862        F  0.05987492  0.64449905  0.87487158    -0.19600
C863        C  0.47008186  0.59071488  0.61512305    -0.21000
C864        C  0.49826610  0.62120773  0.61876145    -0.09100
C865        C  0.02586813  0.62834714  0.59914165     0.29800
C866        C  0.02490145  0.60580623  0.57612044    -0.21000
C867        C  0.99661995  0.57549699  0.57206509    -0.09100
C868        C  0.46922259  0.56799401  0.59219078     0.29800
F869        F  0.44141099  0.53900765  0.58943624    -0.19600
H870        H  0.44851654  0.58441336  0.62998467     0.18100
H871        H  0.04645553  0.61238948  0.56112095     0.18100
F872        F  0.05361431  0.65747977  0.60125852    -0.19600
C873        C  0.12712623  0.53215092  0.60661565    -0.21000
C874        C  0.12370697  0.00229602  0.61702088    -0.09100
C875        C  0.09671816  0.97356008  0.60527637     0.29800
C876        C  0.07459802  0.97481226  0.58312761    -0.21000
C877        C  0.07834527  0.50453832  0.57223929    -0.09100
C878        C  0.10473025  0.53335014  0.58457882     0.29800
F879        F  0.10969260  0.56267337  0.57442588    -0.19600
H880        H  0.14751089  0.55477164  0.61508263     0.18100
H881        H  0.05441029  0.95222165  0.57428185     0.18100
F882        F  0.09158550  0.94403207  0.61479562    -0.19600
C883        C  0.10568283  0.02526928  0.92484566    -0.21000
C884        C  0.07492947  0.99752377  0.92888164    -0.09100
C885        C  0.06706904  0.47009078  0.90907657     0.29800
C886        C  0.08994095  0.47039587  0.88648248    -0.21000
C887        C  0.12091231  0.99802986  0.88292999    -0.09100
C888        C  0.12840491  0.02565771  0.90225219     0.29800
F889        F  0.15803373  0.05289237  0.90027380    -0.19600
H890        H  0.11252141  0.04680985  0.93961773     0.18100
H891        H  0.08337943  0.44885460  0.87182581     0.18100
F892        F  0.03757210  0.44280069  0.91178405    -0.19600
C893        C  0.42157069  0.89564433  0.92345731    -0.21000
C894        C  0.42468895  0.92652601  0.92679185    -0.09100
C895        C  0.40671850  0.93500289  0.90513925     0.29800
C896        C  0.38493120  0.91243932  0.88217815    -0.21000
C897        C  0.38079049  0.88108357  0.87987292    -0.09100
C898        C  0.40007681  0.87322484  0.90028210     0.29800
F899        F  0.39729333  0.84344117  0.89906004    -0.19600
H900        H  0.43532118  0.88842709  0.93937954     0.18100
H901        H  0.37088010  0.91945397  0.86646947     0.18100
F902        F  0.40951915  0.96478410  0.90654568    -0.19600
C903        C  0.37211103  0.89853769  0.60197398    -0.21000
C904        C  0.37836540  0.87516018  0.61615418    -0.09100
C905        C  0.40790500  0.87607602  0.60799635     0.29800
C906        C  0.43019335  0.89955432  0.58602693    -0.21000
C907        C  0.42358814  0.92244980  0.57135410    -0.09100
C908        C  0.39426812  0.92179342  0.57973189     0.29800
F909        F  0.38684165  0.94356059  0.56647263    -0.19600
H910        H  0.34971949  0.89860387  0.60763368     0.18100
H911        H  0.45242458  0.89932083  0.57992331     0.18100
F912        F  0.41541253  0.85425258  0.62093094    -0.19600
C913        C  0.19620497  0.94251314  0.69098419    -0.21000
C914        C  0.16805567  0.94136862  0.67784343    -0.09100
C915        C  0.13854971  0.91158020  0.67819275     0.29800
C916        C  0.13714951  0.88426331  0.69318102    -0.21000
C917        C  0.16502170  0.88637057  0.70783027    -0.09100
C918        C  0.19470699  0.91538108  0.70588223     0.29800
F919        F  0.22196033  0.91784421  0.71987185    -0.19600
H920        H  0.21940055  0.96482900  0.69078033     0.18100
H921        H  0.11404018  0.86192171  0.69477146     0.18100
F922        F  0.11075261  0.90922832  0.66592475    -0.19600
C923        C  0.18870170  0.93350405  0.81816549    -0.21000
C924        C  0.16214503  0.93879903  0.81555891    -0.09100
C925        C  0.13466245  0.91715102  0.79709202     0.29800
C926        C  0.13445716  0.89120747  0.78035673    -0.21000
C927        C  0.16137825  0.88641438  0.78245085    -0.09100
C928        C  0.18818407  0.90723250  0.80211451     0.29800
F929        F  0.21452188  0.90311824  0.80442555    -0.19600
H930        H  0.21016241  0.95018194  0.83212307     0.18100
H931        H  0.11360553  0.87518887  0.76528586     0.18100
F932        F  0.10902325  0.92225279  0.79358242    -0.19600
C933        C  0.28273261  0.86773515  0.79918320    -0.21000
C934        C  0.27756215  0.84096124  0.81841080    -0.09100
C935        C  0.24562186  0.81534439  0.82347359     0.29800
C936        C  0.21943128  0.81558987  0.80784241    -0.21000
C937        C  0.22488589  0.84097833  0.78637095    -0.09100
C938        C  0.25651287  0.86769397  0.78301477     0.29800
F939        F  0.26208143  0.89311415  0.76324309    -0.19600
H940        H  0.30720325  0.88768434  0.79509449     0.18100
H941        H  0.19513144  0.79500624  0.81082949     0.18100
F942        F  0.23996243  0.78954373  0.84264891    -0.19600
C943        C  0.24413353  0.85702583  0.68943959    -0.21000
C944        C  0.22339039  0.83304487  0.71200152    -0.09100
C945        C  0.22762230  0.80639459  0.71811705     0.29800
C946        C  0.25339075  0.80465503  0.70332238    -0.21000
C947        C  0.27539697  0.82929568  0.68174303    -0.09100
C948        C  0.27009374  0.85531058  0.67438616     0.29800
F949        F  0.29017863  0.87936078  0.65327241    -0.19600
H950        H  0.24082442  0.87754846  0.68433233     0.18100
H951        H  0.25626646  0.78403824  0.70933376     0.18100
F952        F  0.20698461  0.78217674  0.73882866    -0.19600
C953        C  0.11291792  0.74780614  0.79134837    -0.21000
C954        C  0.11304917  0.77682278  0.78507983    -0.09100
C955        C  0.08673657  0.78041278  0.79565215     0.29800
C956        C  0.05992573  0.75468085  0.81125117    -0.21000
C957        C  0.05917296  0.72514496  0.81685851    -0.09100
C958        C  0.08624966  0.72210812  0.80736592     0.29800
F959        F  0.08608773  0.69373856  0.81159617    -0.19600
H960        H  0.13306264  0.74478447  0.78291036     0.18100
H961        H  0.03937301  0.75759595  0.81831028     0.18100
F962        F  0.08632074  0.80823261  0.78937645    -0.19600
C963        C  0.08589806  0.72169734  0.68716669    -0.21000
C964        C  0.05749370  0.72366244  0.68235466    -0.09100
C965        C  0.05778443  0.75263834  0.69067764     0.29800
C966        C  0.08540709  0.77841979  0.70471590    -0.21000
C967        C  0.11303840  0.77579327  0.71092112    -0.09100
C968        C  0.11349804  0.74756373  0.70168269     0.29800
F969        F  0.14003449  0.74455008  0.70803000    -0.19600
H970        H  0.08621195  0.69964391  0.68116671     0.18100
H971        H  0.08483982  0.80009246  0.71198870     0.18100
F972        F  0.03118682  0.75595525  0.68584071    -0.19600
C973        C  0.41646817  0.63533266  0.80525713    -0.21000
C974        C  0.44038151  0.66435175  0.81970537    -0.09100
C975        C  0.43548324  0.69114799  0.82097683     0.29800
C976        C  0.40769497  0.68930254  0.80682310    -0.21000
C977        C  0.38471028  0.66096168  0.79082110    -0.09100
C978        C  0.38885714  0.63368475  0.79060922     0.29800
F979        F  0.36675465  0.60589565  0.77535147    -0.19600
H980        H  0.41994441  0.61450599  0.80390297     0.18100
H981        H  0.40496243  0.71054847  0.80683098     0.18100
F982        F  0.45790538  0.71930932  0.83538624    -0.19600
C983        C  0.44012214  0.69254982  0.69638022    -0.21000
C984        C  0.43898188  0.66404040  0.68482137    -0.09100
C985        C  0.40950701  0.63444600  0.68749409     0.29800
C986        C  0.38250668  0.63346116  0.70329555    -0.21000
C987        C  0.38471453  0.66182855  0.71641208    -0.09100
C988        C  0.41328875  0.69147250  0.71200788     0.29800
F989        F  0.41557907  0.71925106  0.72394764    -0.19600
H990        H  0.46217681  0.71581055  0.69411807     0.18100
H991        H  0.36038514  0.61043785  0.70648831     0.18100
F992        F  0.40722590  0.60638243  0.67652631    -0.19600
C993        C  0.31300372  0.71641539  0.69270620    -0.21000
C994        C  0.33832683  0.72309770  0.71497260    -0.10600
C995        C  0.36458582  0.75484263  0.71789703     0.29800
C996        C  0.36446875  0.77993451  0.69999107    -0.21000
C997        C  0.33793942  0.77353968  0.67957489    -0.09100
C998        C  0.31252058  0.74156100  0.67542075     0.29800
F999        F  0.28669212  0.73490151  0.65561550    -0.19600
H1000       H  0.29274983  0.69197703  0.69012319     0.18100
H1001       H  0.38403441  0.80456605  0.70363456     0.18100
F1002       F  0.38973367  0.76165730  0.73877879    -0.19600
C1003       C  0.35836175  0.74429688  0.81077403    -0.21000
C1004       C  0.33304813  0.72273388  0.78995263    -0.09100
C1005       C  0.30576550  0.72656542  0.78553324     0.29800
C1006       C  0.30477907  0.75275982  0.79996410    -0.21000
C1007       C  0.33100952  0.77584721  0.81917726    -0.09100
C1008       C  0.35751906  0.77076680  0.82525914     0.29800
F1009       F  0.38314305  0.79181575  0.84412810    -0.19600
H1010       H  0.37944697  0.74151038  0.81462697     0.18100
H1011       H  0.28366552  0.75534246  0.79516296     0.18100
F1012       F  0.28039493  0.70538788  0.76640212    -0.19600
C1013       C  0.22176129  0.58456855  0.81714766    -0.21000
C1014       C  0.22424059  0.55643785  0.82039057    -0.09100
C1015       C  0.25329075  0.55725915  0.81051207     0.29800
C1016       C  0.27866016  0.58523294  0.79643238    -0.21000
C1017       C  0.27539152  0.61256587  0.79171027    -0.09100
C1018       C  0.24712577  0.61246150  0.80257228     0.29800
F1019       F  0.24350879  0.63871578  0.79767649    -0.19600
H1020       H  0.19960506  0.58448185  0.82437570     0.18100
H1021       H  0.30040478  0.58516835  0.78784405     0.18100
F1022       F  0.25699249  0.53087319  0.81375341    -0.19600
C1023       C  0.21999032  0.58468513  0.69395150    -0.21000
C1024       C  0.22475024  0.55906182  0.68371379    -0.09100
C1025       C  0.25506435  0.56104418  0.68958252     0.29800
C1026       C  0.27960605  0.58764921  0.70626319    -0.21000
C1027       C  0.27434357  0.61247393  0.71756572    -0.09100
C1028       C  0.24459764  0.61120461  0.71106376     0.29800
F1029       F  0.23921396  0.63521861  0.72183799    -0.19600
H1030       H  0.19678670  0.58353675  0.68992847     0.18100
H1031       H  0.30247826  0.58844115  0.71130020     0.18100
F1032       F  0.26090830  0.53712673  0.67948479    -0.19600
C1033       C  0.83127474  0.16519321  0.22140459     0.45700
H1034       H  0.83119469  0.16466236  0.19360442    -0.03300
C1035       C  0.83172770  0.16649938  0.28675871     0.45800
H1036       H  0.83183080  0.16686781  0.31454928    -0.03300
C1037       C  0.83607395  0.19689787  0.23630054    -0.17000
C1038       C  0.79986737  0.13888614  0.23739869    -0.16800
C1039       C  0.85823043  0.16073965  0.23681338    -0.17100
C1040       C  0.83577988  0.19755022  0.27066957    -0.17100
C1041       C  0.80011730  0.13938285  0.27166188    -0.16700
C1042       C  0.85868471  0.16150509  0.27109547    -0.17000
C1043       C  0.66715973  0.33219665  0.21438684     0.45700
H1044       H  0.66754311  0.33145228  0.18661315    -0.03300
C1045       C  0.66619917  0.33382975  0.27973749     0.45800
H1046       H  0.66570945  0.33450722  0.30751656    -0.03300
C1047       C  0.63966593  0.30145290  0.23044546    -0.17000
C1048       C  0.69826220  0.33631862  0.23083569    -0.16800
C1049       C  0.66282154  0.35980914  0.22865628    -0.17100
C1050       C  0.63922376  0.30230281  0.26468990    -0.17100
C1051       C  0.69795037  0.33777985  0.26514283    -0.16700
C1052       C  0.66226631  0.36053705  0.26296625    -0.17000
C1053       C  0.85370712  0.34970071  0.13847228     0.80500
N1054       N  0.85728686  0.32428513  0.14829868    -0.77800
C1055       C  0.83410823  0.30039054  0.16742067     0.82900
N1056       N  0.80770421  0.30217188  0.17735959    -0.77800
C1057       C  0.80388126  0.32751594  0.16847669     0.83000
N1058       N  0.82696617  0.35124038  0.14885892    -0.79500
C1059       C  0.85507188  0.35648121  0.35783108     0.80500
N1060       N  0.85525006  0.32879296  0.34919455    -0.77800
C1061       C  0.83066576  0.30550064  0.33064918     0.82900
N1062       N  0.80575819  0.31007471  0.32121808    -0.77800
C1063       C  0.80525753  0.33742756  0.32939720     0.83000
N1064       N  0.83008680  0.36080362  0.34740875    -0.79500
C1065       C  0.64545140  0.49765956  0.35995906     0.80500
N1066       N  0.67236343  0.02589586  0.35106473    -0.77800
C1067       C  0.69582141  0.02583733  0.33146456     0.82900
N1068       N  0.69217859  0.99728381  0.32059631    -0.77800
C1069       C  0.66530221  0.46899776  0.32871270     0.83000
N1070       N  0.64179050  0.46912758  0.34827922    -0.79500
C1071       C  0.64863276  0.50145521  0.13916889     0.80500
N1072       N  0.67409653  0.02960976  0.15075279    -0.77800
C1073       C  0.69750377  0.02911661  0.16990754     0.82900
N1074       N  0.69513930  0.50041437  0.17776912    -0.77800
C1075       C  0.66993459  0.47209415  0.16694528     0.83000
N1076       N  0.64664375  0.47271327  0.14761023    -0.79500
C1077       C  0.99828770  0.14566476  0.14194428     0.80500
N1078       N  0.96955033  0.14278529  0.15274167    -0.77800
C1079       C  0.96946721  0.16598468  0.17256469     0.82900
N1080       N  0.49818167  0.19181163  0.18159236    -0.77800
C1081       C  0.52691833  0.19507067  0.17133088     0.83000
N1082       N  0.52693856  0.17182630  0.15158064    -0.79500
C1083       C  0.00151529  0.14758812  0.35910023     0.80500
N1084       N  0.52972975  0.17390261  0.34872112    -0.77800
C1085       C  0.52895645  0.19711940  0.32960104     0.82900
N1086       N  0.49982070  0.19394525  0.32098386    -0.77800
C1087       C  0.97157537  0.16768060  0.33065535     0.83000
N1088       N  0.97247862  0.14448114  0.34952742    -0.79500
O1089       O  0.54055935  0.48001261  0.02813490    -0.85100
O1090       O  0.97514220  0.45023504  0.04380412    -0.82100
C1091       C  0.94656185  0.44569924  0.04634669     0.98400
O1092       O  0.93687455  0.45977113  0.02649833    -0.82200
O1093       O  0.97190785  0.02480667  0.04290985    -0.84800
C1094       C  0.49618866  0.05288845  0.04611722     1.02900
O1095       O  0.52030351  0.06264945  0.02640526    -0.77600
O1096       O  0.55190567  0.02893017  0.04285447    -0.77800
C1097       C  0.55559914  0.00461445  0.04672295     1.02800
O1098       O  0.52424760  0.47334613  0.45842284    -0.85100
O1099       O  0.95916966  0.43883732  0.47407430    -0.82200
C1100       C  0.94570847  0.44875564  0.45362353     0.98400
O1101       O  0.94922168  0.47671806  0.45693013    -0.82200
O1102       O  0.97816074  0.04146459  0.47356092    -0.84800
C1103       C  0.50207350  0.05542376  0.45370293     1.02900
O1104       O  0.52638193  0.05142189  0.45684479    -0.77600
O1105       O  0.56189129  0.02191936  0.47354839    -0.77800
C1106       C  0.55226623  0.49756346  0.45461623     1.02800
Cr1107     Cr  0.99980051  0.46365658  0.00112454     1.93700
Cr1108     Cr  0.96206404  0.50067600  0.50003347     1.93200
Cr1109     Cr  0.53702644  0.03818972  0.49995162     1.39100
O1110       O  0.99969470  0.50086149  0.00052177    -1.22800
C1111       C  0.97294709  0.09985525  0.39718967    -0.21000
C1112       C  0.00204172  0.12305468  0.38175761    -0.09100
C1113       C  0.53109671  0.12284710  0.38918374     0.29800
C1114       C  0.53082773  0.10025899  0.41183521    -0.21000
C1115       C  0.50180663  0.07767626  0.42785409    -0.09100
C1116       C  0.97273831  0.07757609  0.41997739     0.29800
F1117       F  0.94392716  0.05604603  0.43436029    -0.19600
H1118       H  0.95014667  0.09920625  0.39216291     0.18100
H1119       H  0.55356216  0.10096237  0.41741591     0.18100
F1120       F  0.55987606  0.14449974  0.37487124    -0.19600
C1121       C  0.97008504  0.09071350  0.11512695    -0.21000
C1122       C  0.99826754  0.12120825  0.11876219    -0.09100
C1123       C  0.52586768  0.12835019  0.09913817     0.29800
C1124       C  0.52490086  0.10580964  0.07611621    -0.21000
C1125       C  0.49662104  0.07549828  0.07206418    -0.09100
C1126       C  0.96922563  0.06799301  0.09219400     0.29800
F1127       F  0.94141578  0.03900467  0.08944317    -0.19600
H1128       H  0.94852107  0.08441011  0.12999173     0.18100
H1129       H  0.54645346  0.11239482  0.06111354     0.18100
F1130       F  0.55361190  0.15748481  0.10125178    -0.19600
C1131       C  0.62712783  0.03215211  0.10661730    -0.21000
C1132       C  0.62371033  0.50229877  0.11702160    -0.09100
C1133       C  0.59671924  0.47356241  0.10528106     0.29800
C1134       C  0.57459869  0.47481374  0.08313206    -0.21000
C1135       C  0.57834560  0.00453956  0.07224247    -0.09100
C1136       C  0.60473208  0.03335138  0.08458004     0.29800
F1137       F  0.60969632  0.06267454  0.07442436    -0.19600
H1138       H  0.64751397  0.05477279  0.11508222     0.18100
H1139       H  0.55440930  0.45222285  0.07428920     0.18100
F1140       F  0.59158462  0.44403477  0.11480456    -0.19600
C1141       C  0.60567816  0.52527066  0.42484088    -0.21000
C1142       C  0.57492611  0.49752374  0.42887878    -0.09100
C1143       C  0.56706835  0.97008969  0.40907805     0.29800
C1144       C  0.58994061  0.97039430  0.38648456    -0.21000
C1145       C  0.62091026  0.49803150  0.38292726    -0.09100
C1146       C  0.62840081  0.52565993  0.40224751     0.29800
F1147       F  0.65802840  0.55289598  0.40026775    -0.19600
H1148       H  0.61251547  0.54681169  0.43961164     0.18100
H1149       H  0.58337952  0.94885244  0.37182908     0.18100
F1150       F  0.53757180  0.94279926  0.41178655    -0.19600
C1151       C  0.92156884  0.39564551  0.42345908    -0.21000
C1152       C  0.92468825  0.42652771  0.42679184    -0.09100
C1153       C  0.90672061  0.43500579  0.40513654     0.29800
C1154       C  0.88493449  0.41244251  0.38217449    -0.21000
C1155       C  0.88079269  0.38108624  0.37987101    -0.09100
C1156       C  0.90007640  0.37322650  0.40028301     0.29800
F1157       F  0.89729172  0.34344228  0.39906280    -0.19600
H1158       H  0.93531731  0.38842742  0.43938336     0.18100
H1159       H  0.87088528  0.41945777  0.36646363     0.18100
F1160       F  0.90952314  0.46478787  0.40654095    -0.19600
C1161       C  0.87211173  0.39853570  0.10197103    -0.21000
C1162       C  0.87836762  0.37516048  0.11615454    -0.09100
C1163       C  0.90790835  0.37607772  0.10799932     0.29800
C1164       C  0.93019653  0.39955532  0.08602928    -0.21000
C1165       C  0.92358989  0.42244860  0.07135341    -0.09100
C1166       C  0.89426860  0.42179068  0.07972843     0.29800
F1167       F  0.88684053  0.44355551  0.06646589    -0.19600
H1168       H  0.84971923  0.39860066  0.10762852     0.18100
H1169       H  0.95242881  0.39932310  0.07992777     0.18100
F1170       F  0.91541714  0.35425638  0.12093719    -0.19600
C1171       C  0.69620908  0.44251663  0.19098547    -0.21000
C1172       C  0.66806047  0.44137214  0.17784281    -0.09100
C1173       C  0.63855448  0.41158359  0.17819087     0.29800
C1174       C  0.63715357  0.38426660  0.19317961    -0.21000
C1175       C  0.66502495  0.38637394  0.20783083    -0.09100
C1176       C  0.69471033  0.41538452  0.20588421     0.29800
F1177       F  0.72196298  0.41784758  0.21987559    -0.19600
H1178       H  0.71940468  0.46483251  0.19078261     0.18100
H1179       H  0.61404427  0.36192481  0.19476886     0.18100
F1180       F  0.61075794  0.40923151  0.16592095    -0.19600
C1181       C  0.68870260  0.43350392  0.31817193    -0.21000
C1182       C  0.66214710  0.43880045  0.31556221    -0.09100
C1183       C  0.63466644  0.41715438  0.29709183     0.29800
C1184       C  0.63446230  0.39121191  0.28035545    -0.21000
C1185       C  0.66138246  0.38641750  0.28245213    -0.09100
C1186       C  0.68818582  0.40723291  0.30212032     0.29800
F1187       F  0.71452221  0.40311670  0.30443536    -0.19600
H1188       H  0.71016179  0.45018022  0.33213248     0.18100
H1189       H  0.61361218  0.37519506  0.26528189     0.18100
F1190       F  0.60902820  0.42225731  0.29357983    -0.19600
C1191       C  0.78273684  0.36773758  0.29917871    -0.21000
C1192       C  0.77756713  0.34096219  0.31840325    -0.09100
C1193       C  0.74562737  0.31534298  0.32346250     0.29800
C1194       C  0.71943667  0.31558845  0.30783189    -0.21000
C1195       C  0.72489052  0.34097925  0.28636447    -0.09100
C1196       C  0.75651689  0.36769627  0.28301059     0.29800
F1197       F  0.76208457  0.39311809  0.26324204    -0.19600
H1198       H  0.80720706  0.38768834  0.29509243     0.18100
H1199       H  0.69513724  0.29500355  0.31081679     0.18100
F1200       F  0.73996855  0.28954036  0.34263421    -0.19600
C1201       C  0.74413817  0.35703109  0.18943957    -0.21000
C1202       C  0.72339023  0.33304632  0.21199559    -0.09100
C1203       C  0.72761730  0.30639234  0.21810551     0.29800
C1204       C  0.75338561  0.30465231  0.20331119    -0.21000
C1205       C  0.77539695  0.32929671  0.18173845    -0.09100
C1206       C  0.77009844  0.35531558  0.17438670     0.29800
F1207       F  0.79018865  0.37936992  0.15327966    -0.19600
H1208       H  0.74083308  0.37755695  0.18433714     0.18100
H1209       H  0.75625757  0.28403246  0.20931820     0.18100
F1210       F  0.70697572  0.28217195  0.23881245    -0.19600
C1211       C  0.61291713  0.24780525  0.29133930    -0.21000
C1212       C  0.61305535  0.27682732  0.28508348    -0.09100
C1213       C  0.58675138  0.28042458  0.29567209     0.29800
C1214       C  0.55994146  0.25469447  0.31127431    -0.21000
C1215       C  0.55918164  0.22515359  0.31686872    -0.09100
C1216       C  0.58625006  0.22210916  0.30736019     0.29800
F1217       F  0.58607976  0.19373405  0.31157717    -0.19600
H1218       H  0.63305509  0.24477812  0.28288882     0.18100
H1219       H  0.53939441  0.25761455  0.31834534     0.18100
F1220       F  0.58634189  0.30824947  0.28940803    -0.19600
C1221       C  0.58590005  0.22170322  0.18715964    -0.21000
C1222       C  0.55749147  0.22366328  0.18235878    -0.09100
C1223       C  0.55777828  0.25263516  0.19069298     0.29800
C1224       C  0.58540111  0.27841692  0.20473087    -0.21000
C1225       C  0.61303709  0.27579526  0.21092416    -0.09100
C1226       C  0.61350051  0.24757014  0.20167466     0.29800
F1227       F  0.64004145  0.24456092  0.20801020    -0.19600
H1228       H  0.58621752  0.19965326  0.18115094     0.18100
H1229       H  0.58483098  0.30008624  0.21201177     0.18100
F1230       F  0.53117702  0.25594822  0.18586697    -0.19600
C1231       C  0.91647222  0.13534061  0.30527133    -0.21000
C1232       C  0.94039043  0.16436479  0.31970693    -0.09100
C1233       C  0.93549709  0.19116467  0.32096224     0.29800
C1234       C  0.90770776  0.18931614  0.30680766    -0.21000
C1235       C  0.88471671  0.16096847  0.29082083    -0.09100
C1236       C  0.88886027  0.13368964  0.29062209     0.29800
F1237       F  0.86675338  0.10589523  0.27537605    -0.19600
H1238       H  0.91994484  0.11451129  0.30392838     0.18100
H1239       H  0.90497851  0.21056403  0.30680361     0.18100
F1240       F  0.95792440  0.21933205  0.33535736    -0.19600
C1241       C  0.94011416  0.19254740  0.19636208    -0.21000
C1242       C  0.93897938  0.16403521  0.18482203    -0.09100
C1243       C  0.90951009  0.13443778  0.18751269     0.29800
C1244       C  0.88251034  0.13345386  0.20331447    -0.21000
C1245       C  0.88471312  0.16182542  0.21641231    -0.09100
C1246       C  0.91328100  0.19147121  0.21198914     0.29800
F1247       F  0.91556623  0.21925322  0.22391091    -0.19600
H1248       H  0.96216471  0.21580975  0.19408545     0.18100
H1249       H  0.86039347  0.11042904  0.20652182     0.18100
F1250       F  0.90723505  0.10637154  0.17656332    -0.19600
C1251       C  0.81300603  0.21641831  0.19271162    -0.21000
C1252       C  0.83832869  0.22310023  0.21497850    -0.10600
C1253       C  0.86458727  0.25484543  0.21790403     0.29800
C1254       C  0.86447043  0.27993756  0.19999817    -0.21000
C1255       C  0.83794174  0.27354281  0.17958099    -0.09100
C1256       C  0.81252312  0.24156412  0.17542630     0.29800
F1257       F  0.78669515  0.23490464  0.15562026    -0.19600
H1258       H  0.79275248  0.19197994  0.19012771     0.18100
H1259       H  0.88403590  0.30456910  0.20364213     0.18100
F1260       F  0.88973481  0.26166013  0.23878626    -0.19600
C1261       C  0.85836703  0.24429943  0.31077548    -0.21000
C1262       C  0.83305082  0.22273338  0.28995844    -0.09100
C1263       C  0.80576623  0.22656228  0.28554283     0.29800
C1264       C  0.80478012  0.25275705  0.29997286    -0.21000
C1265       C  0.83101322  0.27584783  0.31918063    -0.09100
C1266       C  0.85752496  0.27077016  0.32525918     0.29800
F1267       F  0.88315196  0.29182310  0.34412232    -0.19600
H1268       H  0.87945387  0.24151494  0.31462532     0.18100
H1269       H  0.78366494  0.25533770  0.29517455     0.18100
F1270       F  0.78039402  0.20538252  0.26641488    -0.19600
C1271       C  0.72176138  0.08456781  0.31714839    -0.21000
C1272       C  0.72424065  0.05643711  0.32039174    -0.09100
C1273       C  0.75329125  0.05725877  0.31051419     0.29800
C1274       C  0.77866113  0.08523285  0.29643531    -0.21000
C1275       C  0.77539264  0.11256582  0.29171281    -0.09100
C1276       C  0.74712632  0.11246105  0.30257371     0.29800
F1277       F  0.74350931  0.13871527  0.29767767    -0.19600
H1278       H  0.69960488  0.08448096  0.32437569     0.18100
H1279       H  0.80040602  0.08516840  0.28784779     0.18100
F1280       F  0.75699313  0.03087294  0.31375589    -0.19600
C1281       C  0.71999414  0.08468703  0.19394899    -0.21000
C1282       C  0.72475279  0.05906179  0.18371540    -0.09100
C1283       C  0.75506568  0.06104268  0.18958858     0.29800
C1284       C  0.77960708  0.08764804  0.20626945    -0.21000
C1285       C  0.77434544  0.11247449  0.21756809    -0.09100
C1286       C  0.74460102  0.11120671  0.21106156     0.29800
F1287       F  0.73921818  0.13522240  0.22183175    -0.19600
H1288       H  0.69679169  0.08354011  0.18992253     0.18100
H1289       H  0.80247843  0.08843913  0.21130934     0.18100
F1290       F  0.76090884  0.03712355  0.17949521    -0.19600
C1291       C  0.83127481  0.16519287  0.72140437     0.45700
H1292       H  0.83119525  0.16466140  0.69360422    -0.03300
C1293       C  0.83172670  0.16650066  0.78675858     0.45800
H1294       H  0.83182903  0.16686951  0.81454914    -0.03300
C1295       C  0.83607209  0.19689712  0.73629907    -0.17000
C1296       C  0.79986776  0.13888534  0.73739848    -0.16800
C1297       C  0.85823147  0.16074175  0.73681446    -0.17100
C1298       C  0.83577730  0.19755043  0.77066811    -0.17100
C1299       C  0.80011738  0.13938297  0.77166159    -0.16700
C1300       C  0.85868477  0.16150719  0.77109672    -0.17000
C1301       C  0.66716115  0.33219680  0.71438747     0.45700
H1302       H  0.66754665  0.33145310  0.68661381    -0.03300
C1303       C  0.66619549  0.33382808  0.77973802     0.45800
H1304       H  0.66570354  0.33450500  0.80751703    -0.03300
C1305       C  0.63966692  0.30145235  0.73044419    -0.17000
C1306       C  0.69826266  0.33631913  0.73083909    -0.16800
C1307       C  0.66282063  0.35980810  0.72865586    -0.17100
C1308       C  0.63922194  0.30230104  0.76468859    -0.17100
C1309       C  0.69794842  0.33777998  0.76514630    -0.16700
C1310       C  0.66226289  0.36053509  0.76296572    -0.17000
C1311       C  0.85370468  0.34969881  0.63847100     0.80500
N1312       N  0.85728405  0.32428261  0.64829565    -0.77800
C1313       C  0.83410638  0.30038842  0.66741864     0.82900
N1314       N  0.80770370  0.30217074  0.67736047    -0.77800
C1315       C  0.80388105  0.32751535  0.66847918     0.83000
N1316       N  0.82696497  0.35123945  0.64886029    -0.79500
C1317       C  0.85506935  0.35647976  0.85783430     0.80500
N1318       N  0.85524662  0.32879146  0.84919592    -0.77800
C1319       C  0.83066157  0.30550001  0.83065035     0.82900
N1320       N  0.80575398  0.31007504  0.82122102    -0.77800
C1321       C  0.80525445  0.33742818  0.82940199     0.83000
N1322       N  0.83008449  0.36080316  0.84741356    -0.79500
C1323       C  0.64544984  0.49765791  0.85995758     0.80500
N1324       N  0.67236575  0.02589705  0.85106601    -0.77800
C1325       C  0.69582244  0.02583848  0.83146380     0.82900
N1326       N  0.69217825  0.99728519  0.82059311    -0.77800
C1327       C  0.66529987  0.46899609  0.82871043     0.83000
N1328       N  0.64178850  0.46912592  0.84827748    -0.79500
C1329       C  0.64862603  0.50145137  0.63916963     0.80500
N1330       N  0.67409706  0.02960937  0.65075107    -0.77800
C1331       C  0.69750256  0.02911606  0.66990856     0.82900
N1332       N  0.69513353  0.50041159  0.67776878    -0.77800
C1333       C  0.66992900  0.47209113  0.66694551     0.83000
N1334       N  0.64663755  0.47270965  0.64761094    -0.79500
C1335       C  0.99828828  0.14566553  0.64194632     0.80500
N1336       N  0.96955160  0.14278827  0.65274315    -0.77800
C1337       C  0.96947016  0.16598945  0.67256494     0.82900
N1338       N  0.49818561  0.19181594  0.68159110    -0.77800
C1339       C  0.52692119  0.19507239  0.67132990     0.83000
N1340       N  0.52693972  0.17182623  0.65158186    -0.79500
C1341       C  0.00151395  0.14758186  0.85909508     0.80500
N1342       N  0.52972751  0.17389697  0.84871511    -0.77800
C1343       C  0.52895267  0.19711304  0.82959502     0.82900
N1344       N  0.49981593  0.19393759  0.82097921    -0.77800
C1345       C  0.97157155  0.16767215  0.83065161     0.83000
N1346       N  0.97247652  0.14447346  0.84952317    -0.79500
O1347       O  0.54055617  0.48001133  0.52813383    -0.85100
O1348       O  0.97513926  0.45023357  0.54380283    -0.82100
C1349       C  0.94655899  0.44569798  0.54634575     0.98400
O1350       O  0.93687172  0.45977016  0.52649777    -0.82200
O1351       O  0.97190897  0.02480876  0.54291214    -0.84800
C1352       C  0.49618993  0.05289017  0.54611947     1.02900
O1353       O  0.52030478  0.06265115  0.52640734    -0.77600
O1354       O  0.55190735  0.02893132  0.54285331    -0.77800
C1355       C  0.55560050  0.00461529  0.54672068     1.02800
O1356       O  0.52424980  0.47334659  0.95842411    -0.85100
O1357       O  0.95917196  0.43883693  0.97407562    -0.82200
C1358       C  0.94571018  0.44875459  0.95362481     0.98400
O1359       O  0.94922406  0.47671739  0.95693045    -0.82200
O1360       O  0.97816072  0.04146142  0.97355796    -0.84800
C1361       C  0.50207411  0.05542099  0.95370087     1.02900
O1362       O  0.52638295  0.05141996  0.95684399    -0.77600
O1363       O  0.56189313  0.02191888  0.97355024    -0.77800
C1364       C  0.55226811  0.49756412  0.95461670     1.02800
Cr1365     Cr  0.99979783  0.46365564  0.50112335     1.93700
Cr1366     Cr  0.96206638  0.50067651  0.00003322     1.93200
Cr1367     Cr  0.53702644  0.03818826  0.99995153     1.39100
O1368       O  0.99969210  0.50086046  0.50052132    -1.22800
C1369       C  0.97294572  0.09984396  0.89717830    -0.21000
C1370       C  0.00204172  0.12304954  0.88175324    -0.09100
C1371       C  0.53109885  0.12284922  0.88918766     0.29800
C1372       C  0.53083033  0.10026191  0.91183992    -0.21000
C1373       C  0.50180751  0.07767294  0.92785147    -0.09100
C1374       C  0.97273741  0.07756581  0.91996704     0.29800
F1375       F  0.94392482  0.05602936  0.93434280    -0.19600
H1376       H  0.95014351  0.09918900  0.89214507     0.18100
H1377       H  0.55356618  0.10097083  0.91742719     0.18100
F1378       F  0.55987989  0.14450843  0.87488302    -0.19600
C1379       C  0.97008473  0.09071468  0.61512812    -0.21000
C1380       C  0.99826775  0.12120864  0.61876482    -0.09100
C1381       C  0.52586900  0.12834981  0.59914283     0.29800
C1382       C  0.52490250  0.10580972  0.57612068    -0.21000
C1383       C  0.49662212  0.07549940  0.57206677    -0.09100
C1384       C  0.96922574  0.06799447  0.59219509     0.29800
F1385       F  0.94141548  0.03900668  0.58944269    -0.19600
H1386       H  0.94852021  0.08441182  0.62999170     0.18100
H1387       H  0.54645583  0.11239443  0.56111940     0.18100
F1388       F  0.55361418  0.15748343  0.60125846    -0.19600
C1389       C  0.62713241  0.03215232  0.60661035    -0.21000
C1390       C  0.62370354  0.50229484  0.61702280    -0.09100
C1391       C  0.59671680  0.47355866  0.60527576     0.29800
C1392       C  0.57459684  0.47481048  0.58312655    -0.21000
C1393       C  0.57834868  0.00454021  0.57223775    -0.09100
C1394       C  0.60473660  0.03335189  0.58457348     0.29800
F1395       F  0.60970186  0.06267512  0.57441668    -0.19600
H1396       H  0.64751904  0.05477288  0.61507477     0.18100
H1397       H  0.55441109  0.45221975  0.57427839     0.18100
F1398       F  0.59158619  0.44403077  0.61479261    -0.19600
C1399       C  0.60568140  0.52526877  0.92484427    -0.21000
C1400       C  0.57492739  0.49752385  0.92887911    -0.09100
C1401       C  0.56707230  0.97008972  0.90908125     0.29800
C1402       C  0.58994440  0.97039472  0.88648759    -0.21000
C1403       C  0.62090977  0.49803024  0.88292665    -0.09100
C1404       C  0.62840324  0.52565733  0.90225047     0.29800
F1405       F  0.65803291  0.55289113  0.90027380    -0.19600
H1406       H  0.61252088  0.54680864  0.93961783     0.18100
H1407       H  0.58338348  0.94885274  0.87183234     0.18100
F1408       F  0.53757623  0.94279879  0.91179030    -0.19600
C1409       C  0.92157012  0.39564416  0.92345943    -0.21000
C1410       C  0.92468854  0.42652589  0.92679403    -0.09100
C1411       C  0.90671853  0.43500316  0.90514128     0.29800
C1412       C  0.88493187  0.41244010  0.88217952    -0.21000
C1413       C  0.88079120  0.38108440  0.87987389    -0.09100
C1414       C  0.90007675  0.37322510  0.90028360     0.29800
F1415       F  0.89729315  0.34344138  0.89906129    -0.19600
H1416       H  0.93532023  0.38842665  0.93938187     0.18100
H1417       H  0.87088119  0.41945514  0.86647067     0.18100
F1418       F  0.90951899  0.46478429  0.90654815    -0.19600
C1419       C  0.87211002  0.39853543  0.60197195    -0.21000
C1420       C  0.87836480  0.37515859  0.61615309    -0.09100
C1421       C  0.90790451  0.37607451  0.60799584     0.29800
C1422       C  0.93019266  0.39955227  0.58602599    -0.21000
C1423       C  0.92358712  0.42244716  0.57135240    -0.09100
C1424       C  0.89426700  0.42179077  0.57972965     0.29800
F1425       F  0.88684048  0.44355769  0.56646984    -0.19600
H1426       H  0.84971837  0.39860154  0.60763128     0.18100
H1427       H  0.95242408  0.39931895  0.57992282     0.18100
F1428       F  0.91541238  0.35425179  0.62093166    -0.19600
C1429       C  0.69620555  0.44251511  0.69098466    -0.21000
C1430       C  0.66805623  0.44136967  0.67784263    -0.09100
C1431       C  0.63855088  0.41158066  0.67819081     0.29800
C1432       C  0.63715117  0.38426408  0.69317915    -0.21000
C1433       C  0.66502315  0.38637228  0.70782991    -0.09100
C1434       C  0.69470800  0.41538337  0.70588297     0.29800
F1435       F  0.72196121  0.41784731  0.71987387    -0.19600
H1436       H  0.71940074  0.46483142  0.69078170     0.18100
H1437       H  0.61404224  0.36192198  0.69476862     0.18100
F1438       F  0.61075379  0.40922780  0.66592150    -0.19600
C1439       C  0.68869932  0.43350169  0.81817067    -0.21000
C1440       C  0.66214432  0.43879882  0.81556003    -0.09100
C1441       C  0.63466381  0.41715336  0.79708907     0.29800
C1442       C  0.63445927  0.39121052  0.78035325    -0.21000
C1443       C  0.66137895  0.38641553  0.78245091    -0.09100
C1444       C  0.68818223  0.40723058  0.80211929     0.29800
F1445       F  0.71451831  0.40311388  0.80443469    -0.19600
H1446       H  0.71015835  0.45017762  0.83213163     0.18100
H1447       H  0.61360931  0.37519392  0.76527934     0.18100
F1448       F  0.60902625  0.42225718  0.79357595    -0.19600
C1449       C  0.78273573  0.36773786  0.79917965    -0.21000
C1450       C  0.77756497  0.34096508  0.81840947    -0.09100
C1451       C  0.74562444  0.31534999  0.82347549     0.29800
C1452       C  0.71943373  0.31559532  0.80784446    -0.21000
C1453       C  0.72488842  0.34098212  0.78637043    -0.09100
C1454       C  0.75651572  0.36769681  0.78301194     0.29800
F1455       F  0.76208416  0.39311623  0.76323905    -0.19600
H1456       H  0.80720654  0.38768597  0.79508901     0.18100
H1457       H  0.69513362  0.29501269  0.81083375     0.18100
F1458       F  0.73996481  0.28955118  0.84265408    -0.19600
C1459       C  0.74413336  0.35702603  0.68943680    -0.21000
C1460       C  0.72339177  0.33304679  0.71200109    -0.09100
C1461       C  0.72762479  0.30639757  0.71811908     0.29800
C1462       C  0.75339329  0.30465785  0.70332514    -0.21000
C1463       C  0.77539810  0.32929688  0.68174354    -0.09100
C1464       C  0.77009342  0.35531032  0.67438363     0.29800
F1465       F  0.79017659  0.37935851  0.65326702    -0.19600
H1466       H  0.74082315  0.37754767  0.68432747     0.18100
H1467       H  0.75627006  0.28404210  0.70933874     0.18100
F1468       F  0.70698808  0.28218090  0.73883239    -0.19600
C1469       C  0.61291717  0.24780500  0.79134161    -0.21000
C1470       C  0.61305204  0.27682453  0.78508017    -0.09100
C1471       C  0.58674428  0.28041842  0.79566216     0.29800
C1472       C  0.55993394  0.25468720  0.81126278    -0.21000
C1473       C  0.55917736  0.22514852  0.81686257    -0.09100
C1474       C  0.58624979  0.22210793  0.80736121     0.29800
F1475       F  0.58608396  0.19373574  0.81158483    -0.19600
H1476       H  0.63305843  0.24478067  0.78289694     0.18100
H1477       H  0.53938439  0.25760496  0.81832900     0.18100
F1478       F  0.58633240  0.30824152  0.78939440    -0.19600
C1479       C  0.58589898  0.22169821  0.68716893    -0.21000
C1480       C  0.55749522  0.22366405  0.68235550    -0.09100
C1481       C  0.55778682  0.25264080  0.69067616     0.29800
C1482       C  0.58540974  0.27842241  0.70471395    -0.21000
C1483       C  0.61304039  0.27579512  0.71092084    -0.09100
C1484       C  0.61349920  0.24756475  0.70168430     0.29800
F1485       F  0.64003493  0.24455032  0.70803321    -0.19600
H1486       H  0.58621214  0.19964408  0.68117069     0.18100
H1487       H  0.58484307  0.30009571  0.71198528     0.18100
F1488       F  0.53118979  0.25595832  0.68583748    -0.19600
C1489       C  0.91647311  0.13533690  0.80525707    -0.21000
C1490       C  0.94038555  0.16435559  0.81970682    -0.09100
C1491       C  0.93548573  0.19115079  0.82098050     0.29800
C1492       C  0.90769692  0.18930487  0.80682725    -0.21000
C1493       C  0.88471311  0.16096448  0.79082368    -0.09100
C1494       C  0.88886145  0.13368841  0.79061002     0.29800
F1495       F  0.86675948  0.10589944  0.77535169    -0.19600
H1496       H  0.91995029  0.11451084  0.80390153     0.18100
H1497       H  0.90496322  0.21055013  0.80683694     0.18100
F1498       F  0.95790664  0.21931134  0.83539218    -0.19600
C1499       C  0.94012375  0.19255155  0.69638214    -0.21000
C1500       C  0.93898330  0.16404185  0.68482388    -0.09100
C1501       C  0.90950824  0.13444764  0.68749659     0.29800
C1502       C  0.88250816  0.13346317  0.70329817    -0.21000
C1503       C  0.88471631  0.16183079  0.71641442    -0.09100
C1504       C  0.91329042  0.19147467  0.71200948     0.29800
F1505       F  0.91558072  0.21925358  0.72394815    -0.19600
H1506       H  0.96217847  0.21581217  0.69411969     0.18100
H1507       H  0.86038653  0.11044000  0.70649116     0.18100
F1508       F  0.90722658  0.10638394  0.67652840    -0.19600
C1509       C  0.81300476  0.21641641  0.69270848    -0.21000
C1510       C  0.83832724  0.22309869  0.71497574    -0.10600
C1511       C  0.86458602  0.25484369  0.71790084     0.29800
C1512       C  0.86446914  0.27993568  0.69999491    -0.21000
C1513       C  0.83794034  0.27354077  0.67957784    -0.09100
C1514       C  0.81252190  0.24156206  0.67542284     0.29800
F1515       F  0.78669408  0.23490253  0.65561654    -0.19600
H1516       H  0.79275119  0.19197801  0.69012480     0.18100
H1517       H  0.88403451  0.30456727  0.70363888     0.18100
F1518       F  0.88973358  0.26165826  0.73878302    -0.19600
C1519       C  0.85836041  0.24429639  0.81077799    -0.21000
C1520       C  0.83304733  0.22273380  0.78995587    -0.09100
C1521       C  0.80576485  0.22656552  0.78553586     0.29800
C1522       C  0.80477851  0.25276020  0.79996616    -0.21000
C1523       C  0.83100879  0.27584749  0.81917955    -0.09100
C1524       C  0.85751771  0.27076641  0.82526271     0.29800
F1525       F  0.88314130  0.29181499  0.84413233    -0.19600
H1526       H  0.87944539  0.24150962  0.81463162     0.18100
H1527       H  0.78366533  0.25534326  0.79516422     0.18100
F1528       F  0.78039456  0.20538810  0.76640437    -0.19600
C1529       C  0.72176261  0.08456882  0.81714899    -0.21000
C1530       C  0.72424166  0.05643797  0.82039146    -0.09100
C1531       C  0.75329174  0.05725906  0.81051299     0.29800
C1532       C  0.77866155  0.08523304  0.79643416    -0.21000
C1533       C  0.77539327  0.11256623  0.79171265    -0.09100
C1534       C  0.74712745  0.11246194  0.80257430     0.29800
F1535       F  0.74351077  0.13871642  0.79767874    -0.19600
H1536       H  0.69960631  0.08448212  0.82437681     0.18100
H1537       H  0.80040617  0.08516839  0.78784590     0.18100
F1538       F  0.75699303  0.03087277  0.81375365    -0.19600
C1539       C  0.71999189  0.08468514  0.69395343    -0.21000
C1540       C  0.72475118  0.05906110  0.68371686    -0.09100
C1541       C  0.75506489  0.06104293  0.68958683     0.29800
C1542       C  0.77960685  0.08764823  0.70626713    -0.21000
C1543       C  0.77434513  0.11247389  0.71756819    -0.09100
C1544       C  0.74459948  0.11120489  0.71106534     0.29800
F1545       F  0.73921624  0.13521950  0.72183845    -0.19600
H1546       H  0.69678864  0.08353724  0.68992959     0.18100
H1547       H  0.80247871  0.08843968  0.71130498     0.18100
F1548       F  0.76090830  0.03712475  0.67949052    -0.19600
C1549       C  0.83127837  0.66519619  0.22140748     0.45700
H1550       H  0.83119864  0.66466554  0.19360732    -0.03300
C1551       C  0.83173073  0.66650201  0.28676161     0.45800
H1552       H  0.83183351  0.66687030  0.31455217    -0.03300
C1553       C  0.83607719  0.69690068  0.23630359    -0.17000
C1554       C  0.79987088  0.63888879  0.23740105    -0.16800
C1555       C  0.85823390  0.66074256  0.23681665    -0.17100
C1556       C  0.83578274  0.69755274  0.27067262    -0.17100
C1557       C  0.80012054  0.63938548  0.27166426    -0.16700
C1558       C  0.85868820  0.66150822  0.27109871    -0.17000
C1559       C  0.66715887  0.83219500  0.21438554     0.45700
H1560       H  0.66754090  0.83145025  0.18661181    -0.03300
C1561       C  0.66620162  0.83382897  0.27973618     0.45800
H1562       H  0.66571329  0.83450685  0.30751529    -0.03300
C1563       C  0.63966739  0.80145052  0.23044539    -0.17000
C1564       C  0.69826298  0.83631939  0.23083245    -0.16800
C1565       C  0.66281915  0.85980635  0.22865564    -0.17100
C1566       C  0.63922686  0.80230082  0.26468990    -0.17100
C1567       C  0.69795302  0.83778117  0.26513961    -0.16700
C1568       C  0.66226563  0.86053468  0.26296564    -0.17000
C1569       C  0.85370670  0.84970013  0.13847069     0.80500
N1570       N  0.85728767  0.82428583  0.14829925    -0.77800
C1571       C  0.83410967  0.80039202  0.16742247     0.82900
N1572       N  0.80770506  0.80217279  0.17736019    -0.77800
C1573       C  0.80388085  0.82751550  0.16847478     0.83000
N1574       N  0.82696513  0.85123918  0.14885599    -0.79500
C1575       C  0.85507517  0.85648478  0.35783038     0.80500
N1576       N  0.85525275  0.82879593  0.34919532    -0.77800
C1577       C  0.83066859  0.80550348  0.33064998     0.82900
N1578       N  0.80576179  0.81007814  0.32121723    -0.77800
C1579       C  0.80526178  0.83743161  0.32939470     0.83000
N1580       N  0.83009081  0.86080771  0.34740647    -0.79500
C1581       C  0.64544976  0.99765648  0.35995908     0.80500
N1582       N  0.67236567  0.52589889  0.35106570    -0.77800
C1583       C  0.69582359  0.52584020  0.33146545     0.82900
N1584       N  0.69218008  0.49728665  0.32059642    -0.77800
C1585       C  0.66530108  0.96899471  0.32871337     0.83000
N1586       N  0.64178928  0.96912443  0.34827999    -0.79500
C1587       C  0.64862641  0.00145215  0.13917295     0.80500
N1588       N  0.67410177  0.52961287  0.15075039    -0.77800
C1589       C  0.69750803  0.52911978  0.16990696     0.82900
N1590       N  0.69513496  0.00041115  0.17776952    -0.77800
C1591       C  0.66992931  0.97209096  0.16694709     0.83000
N1592       N  0.64663741  0.97271013  0.14761387    -0.79500
C1593       C  0.99828791  0.64566031  0.14195059     0.80500
N1594       N  0.96955038  0.64278060  0.15274762    -0.77800
C1595       C  0.96946702  0.66598059  0.17256943     0.82900
N1596       N  0.49818116  0.69180811  0.18159655    -0.77800
C1597       C  0.52691796  0.69506708  0.17133557     0.83000
N1598       N  0.52693847  0.67182230  0.15158637    -0.79500
C1599       C  0.00151733  0.64758799  0.35910213     0.80500
N1600       N  0.52973249  0.67390174  0.34872324    -0.77800
C1601       C  0.52896060  0.69711995  0.32960450     0.82900
N1602       N  0.49982555  0.69394801  0.32098816    -0.77800
C1603       C  0.97157935  0.66768391  0.33065922     0.83000
N1604       N  0.97248130  0.64448305  0.34953011    -0.79500
O1605       O  0.54055793  0.98001236  0.02813560    -0.85100
O1606       O  0.97514091  0.95023404  0.04380249    -0.82100
C1607       C  0.94656051  0.94569807  0.04634447     0.98400
O1608       O  0.93687364  0.95977045  0.02649630    -0.82200
O1609       O  0.97190887  0.52480707  0.04291069    -0.84800
C1610       C  0.49618989  0.55288845  0.04611862     1.02900
O1611       O  0.52030477  0.56264974  0.02640657    -0.77600
O1612       O  0.55190830  0.52893087  0.04285345    -0.77800
C1613       C  0.55560223  0.50461533  0.04672108     1.02800
O1614       O  0.52424793  0.97334732  0.45842384    -0.85100
O1615       O  0.95917005  0.93883970  0.47407613    -0.82200
C1616       C  0.94570957  0.94875833  0.45362486     0.98400
O1617       O  0.94922326  0.97672095  0.45693115    -0.82200
O1618       O  0.97815897  0.54146163  0.47356012    -0.84800
C1619       C  0.50207170  0.55542051  0.45370221     1.02900
O1620       O  0.52638006  0.55141857  0.45684418    -0.77600
O1621       O  0.56189047  0.52191768  0.47354904    -0.77800
C1622       C  0.55226660  0.99756442  0.45461647     1.02800
Cr1623     Cr  0.99980019  0.96365637  0.00112370     1.93700
Cr1624     Cr  0.96206576  0.00067896  0.50003442     1.93200
Cr1625     Cr  0.53702450  0.53818727  0.49995127     1.39100
O1626       O  0.99969414  0.00086112  0.00052098    -1.22800
C1627       C  0.97294674  0.59985127  0.39718655    -0.21000
C1628       C  0.00204256  0.62305323  0.38175835    -0.09100
C1629       C  0.53109775  0.62284724  0.38918770     0.29800
C1630       C  0.53082777  0.60025827  0.41183842    -0.21000
C1631       C  0.50180551  0.57767324  0.42785360    -0.09100
C1632       C  0.97273709  0.57757146  0.41997398     0.29800
F1633       F  0.94392504  0.55603925  0.43435378    -0.19600
H1634       H  0.95014607  0.59920085  0.39215714     0.18100
H1635       H  0.55356238  0.60096300  0.41742176     0.18100
F1636       F  0.55987841  0.64450248  0.37487943    -0.19600
C1637       C  0.97008632  0.59070964  0.11513229    -0.21000
C1638       C  0.99826836  0.62120460  0.11876791    -0.09100
C1639       C  0.52586847  0.62834789  0.09914303     0.29800
C1640       C  0.52490179  0.60580864  0.07611942    -0.21000
C1641       C  0.49662229  0.57549720  0.07206681    -0.09100
C1642       C  0.96922709  0.56799046  0.09219774     0.29800
F1643       F  0.94141765  0.53900178  0.08944665    -0.19600
H1644       H  0.94852256  0.58440516  0.12999786     0.18100
H1645       H  0.54645414  0.61239488  0.06111592     0.18100
F1646       F  0.55361227  0.65748283  0.10125704    -0.19600
C1647       C  0.62713720  0.53215470  0.10660747    -0.21000
C1648       C  0.62370332  0.00229599  0.11702708    -0.09100
C1649       C  0.59671440  0.97355988  0.10528299     0.29800
C1650       C  0.57459485  0.97481173  0.08313304    -0.21000
C1651       C  0.57835092  0.50454128  0.07223838    -0.09100
C1652       C  0.60474090  0.53335348  0.08457056     0.29800
F1653       F  0.60970791  0.56267626  0.07440974    -0.19600
H1654       H  0.64752559  0.55477554  0.11506876     0.18100
H1655       H  0.55440766  0.95222104  0.07428681     0.18100
F1656       F  0.59158120  0.94403200  0.11480353    -0.19600
C1657       C  0.60567983  0.02526856  0.42484342    -0.21000
C1658       C  0.57492606  0.99752349  0.42887915    -0.09100
C1659       C  0.56707048  0.47008941  0.40907954     0.29800
C1660       C  0.58994318  0.47039521  0.38648598    -0.21000
C1661       C  0.62090919  0.99802890  0.38292777    -0.09100
C1662       C  0.62840198  0.02565662  0.40225025     0.29800
F1663       F  0.65803142  0.05289063  0.40027302    -0.19600
H1664       H  0.61251894  0.04680899  0.43961589     0.18100
H1665       H  0.58338364  0.44885279  0.37183215     0.18100
F1666       F  0.53757563  0.44279722  0.41179010    -0.19600
C1667       C  0.92157182  0.89564915  0.42345877    -0.21000
C1668       C  0.92468982  0.92653066  0.42679282    -0.09100
C1669       C  0.90672145  0.93500842  0.40513828     0.29800
C1670       C  0.88493607  0.91244547  0.38217553    -0.21000
C1671       C  0.88079555  0.88108975  0.37987078    -0.09100
C1672       C  0.90007999  0.87323038  0.40028215     0.29800
F1673       F  0.89729664  0.84344675  0.39906078    -0.19600
H1674       H  0.93532098  0.88843140  0.43938246     0.18100
H1675       H  0.87088628  0.91946051  0.36646527     0.18100
F1676       F  0.90952232  0.96478976  0.40654436    -0.19600
C1677       C  0.87210812  0.89853130  0.10196474    -0.21000
C1678       C  0.87836644  0.87515921  0.11615210    -0.09100
C1679       C  0.90790906  0.87607913  0.10800031     0.29800
C1680       C  0.93019695  0.89955650  0.08602993    -0.21000
C1681       C  0.92358818  0.92244696  0.07135057    -0.09100
C1682       C  0.89426475  0.92178614  0.07972201     0.29800
F1683       F  0.88683441  0.94354801  0.06645590    -0.19600
H1684       H  0.84971396  0.89859401  0.10761951     0.18100
H1685       H  0.95243092  0.89932653  0.07993133     0.18100
F1686       F  0.91542022  0.85426100  0.12094240    -0.19600
C1687       C  0.69620503  0.94251307  0.19098348    -0.21000
C1688       C  0.66805552  0.94136896  0.17784392    -0.09100
C1689       C  0.63854918  0.91158084  0.17819436     0.29800
C1690       C  0.63714892  0.88426387  0.19318237    -0.21000
C1691       C  0.66502132  0.88637084  0.20783059    -0.09100
C1692       C  0.69470694  0.91538098  0.20588151     0.29800
F1693       F  0.72196055  0.91784373  0.21987005    -0.19600
H1694       H  0.71940086  0.96482865  0.19077875     0.18100
H1695       H  0.61403944  0.86192242  0.19477348     0.18100
F1696       F  0.61075181  0.90922930  0.16592765    -0.19600
C1697       C  0.68870249  0.93350183  0.31817109    -0.21000
C1698       C  0.66214616  0.93879730  0.31556314    -0.09100
C1699       C  0.63466461  0.91715000  0.29709458     0.29800
C1700       C  0.63446071  0.89120796  0.28035749    -0.21000
C1701       C  0.66138175  0.88641483  0.28245210    -0.09100
C1702       C  0.68818576  0.90723096  0.30211913     0.29800
F1703       F  0.71452265  0.90311539  0.30443284    -0.19600
H1704       H  0.71016221  0.95017879  0.33213052     0.18100
H1705       H  0.61360991  0.87519033  0.26528513     0.18100
F1706       F  0.60902502  0.92225116  0.29358506    -0.19600
C1707       C  0.78274164  0.86773938  0.29917071    -0.21000
C1708       C  0.77757177  0.84096636  0.31839954    -0.09100
C1709       C  0.74563187  0.81534870  0.32346203     0.29800
C1710       C  0.71944093  0.81559312  0.30783072    -0.21000
C1711       C  0.72489455  0.84098153  0.28635976    -0.09100
C1712       C  0.75652137  0.86769724  0.28300229     0.29800
F1713       F  0.76208908  0.89311705  0.26323043    -0.19600
H1714       H  0.80721205  0.88768888  0.29508180     0.18100
H1715       H  0.69514127  0.79500927  0.31081844     0.18100
F1716       F  0.73997313  0.78954857  0.34263791    -0.19600
C1717       C  0.74413738  0.85703046  0.18943487    -0.21000
C1718       C  0.72338952  0.83304598  0.21199112    -0.09100
C1719       C  0.72761592  0.80639163  0.21810101     0.29800
C1720       C  0.75338417  0.80465136  0.20330717    -0.21000
C1721       C  0.77539595  0.82929584  0.18173486    -0.09100
C1722       C  0.77009757  0.85531466  0.17438237     0.29800
F1723       F  0.79018811  0.87936893  0.15327545    -0.19600
H1724       H  0.74083258  0.87755648  0.18433239     0.18100
H1725       H  0.75625591  0.78403144  0.20931449     0.18100
F1726       F  0.70697415  0.78217149  0.23880808    -0.19600
C1727       C  0.61291736  0.74779999  0.29133299    -0.21000
C1728       C  0.61305973  0.77682531  0.28508484    -0.09100
C1729       C  0.58676070  0.78042657  0.29568311     0.29800
C1730       C  0.55995081  0.75469703  0.31128603    -0.21000
C1731       C  0.55918655  0.72515302  0.31687230    -0.09100
C1732       C  0.58625070  0.72210468  0.30735533     0.29800
F1733       F  0.58607609  0.69372671  0.31156538    -0.19600
H1734       H  0.63305170  0.74476998  0.28287571     0.18100
H1735       H  0.53940708  0.75762002  0.31836399     0.18100
F1736       F  0.58635553  0.80825494  0.28942747    -0.19600
C1737       C  0.58590039  0.72170060  0.18716091    -0.21000
C1738       C  0.55749118  0.72366006  0.18236241    -0.09100
C1739       C  0.55777796  0.75263179  0.19069715     0.29800
C1740       C  0.58540130  0.77841378  0.20473397    -0.21000
C1741       C  0.61303785  0.77579258  0.21092524    -0.09100
C1742       C  0.61350149  0.74756786  0.20167446     0.29800
F1743       F  0.64004329  0.74455931  0.20800725    -0.19600
H1744       H  0.58621805  0.69965089  0.18115138     0.18100
H1745       H  0.58483124  0.80008302  0.21201552     0.18100
F1746       F  0.53117636  0.75594456  0.18587253    -0.19600
C1747       C  0.91647324  0.63534338  0.30528113    -0.21000
C1748       C  0.94039486  0.66436949  0.31971050    -0.09100
C1749       C  0.93550473  0.69117158  0.32095974     0.29800
C1750       C  0.90771551  0.68932316  0.30680477    -0.21000
C1751       C  0.88472089  0.66097304  0.29082428    -0.09100
C1752       C  0.88886108  0.63369222  0.29063214     0.29800
F1753       F  0.86675056  0.60589531  0.27539283    -0.19600
H1754       H  0.91994306  0.61451218  0.30394300     0.18100
H1755       H  0.90498877  0.71057257  0.30679573     0.18100
F1756       F  0.95793485  0.71934078  0.33534953    -0.19600
C1757       C  0.94011091  0.69254626  0.19635110    -0.21000
C1758       C  0.93897912  0.66403147  0.18482499    -0.09100
C1759       C  0.90951345  0.63443242  0.18752894     0.29800
C1760       C  0.88251474  0.63345007  0.20333115    -0.21000
C1761       C  0.88471478  0.66182503  0.21641536    -0.09100
C1762       C  0.91327835  0.69147175  0.21197795     0.29800
F1763       F  0.91556044  0.71925670  0.22388597    -0.19600
H1764       H  0.96215881  0.71580943  0.19406361     0.18100
H1765       H  0.86040106  0.61042452  0.20654927     0.18100
F1766       F  0.90724165  0.60636380  0.17659283    -0.19600
C1767       C  0.81300929  0.71642055  0.19271417    -0.21000
C1768       C  0.83833161  0.72310301  0.21498172    -0.10600
C1769       C  0.86458926  0.75484865  0.21790822     0.29800
C1770       C  0.86447194  0.77994050  0.20000228    -0.21000
C1771       C  0.83794372  0.77354502  0.17958406    -0.09100
C1772       C  0.81252594  0.74156606  0.17542875     0.29800
F1773       F  0.78669846  0.73490602  0.15562172    -0.19600
H1774       H  0.79275632  0.69198190  0.19012970     0.18100
H1775       H  0.88403672  0.80457230  0.20364672     0.18100
F1776       F  0.88973642  0.76166397  0.23879127    -0.19600
C1777       C  0.85836820  0.74430030  0.31078042    -0.21000
C1778       C  0.83305306  0.72273539  0.28996167    -0.09100
C1779       C  0.80576895  0.72656483  0.28554482     0.29800
C1780       C  0.80478285  0.75275972  0.29997438    -0.21000
C1781       C  0.83101541  0.77584998  0.31918302    -0.09100
C1782       C  0.85752612  0.77077118  0.32526371     0.29800
F1783       F  0.88315219  0.79182323  0.34412839    -0.19600
H1784       H  0.87945431  0.74151486  0.31463186     0.18100
H1785       H  0.78366824  0.75534099  0.29517479     0.18100
F1786       F  0.78039723  0.70538560  0.26641605    -0.19600
C1787       C  0.72176775  0.58457286  0.31715673    -0.21000
C1788       C  0.72424365  0.55643968  0.32039324    -0.09100
C1789       C  0.75329147  0.55725876  0.31050912     0.29800
C1790       C  0.77866147  0.58523259  0.29643036    -0.21000
C1791       C  0.77539617  0.61256814  0.29171481    -0.09100
C1792       C  0.74713309  0.61246614  0.30258247     0.29800
F1793       F  0.74351923  0.63872307  0.29769315    -0.19600
H1794       H  0.69961355  0.58448820  0.32438911     0.18100
H1795       H  0.80040385  0.58516608  0.28783758     0.18100
F1796       F  0.75699044  0.53087060  0.31374370    -0.19600
C1797       C  0.71999557  0.58468752  0.19395491    -0.21000
C1798       C  0.72475626  0.55906489  0.18371615    -0.09100
C1799       C  0.75507063  0.56104788  0.18958547     0.29800
C1800       C  0.77961213  0.58765334  0.20626638    -0.21000
C1801       C  0.77434874  0.61247732  0.21756997    -0.09100
C1802       C  0.74460220  0.61120685  0.21106831     0.29800
F1803       F  0.73921722  0.63521971  0.22184371    -0.19600
H1804       H  0.69679176  0.58353865  0.18993183     0.18100
H1805       H  0.80248497  0.58844628  0.21130252     0.18100
F1806       F  0.76091515  0.53713071  0.17948799    -0.19600
C1807       C  0.83127352  0.66519169  0.72140164     0.45700
H1808       H  0.83119387  0.66466006  0.69360150    -0.03300
C1809       C  0.83172540  0.66649975  0.78675580     0.45800
H1810       H  0.83182785  0.66686879  0.81454638    -0.03300
C1811       C  0.83607195  0.69689640  0.73629610    -0.17000
C1812       C  0.79986607  0.63888509  0.73739595    -0.16800
C1813       C  0.85822941  0.66073938  0.73681176    -0.17100
C1814       C  0.83577736  0.69754999  0.77066512    -0.17100
C1815       C  0.80011561  0.63938271  0.77165906    -0.16700
C1816       C  0.85868249  0.66150482  0.77109398    -0.17000
C1817       C  0.66715949  0.83219473  0.71438784     0.45700
H1818       H  0.66754504  0.83145099  0.68661418    -0.03300
C1819       C  0.66619355  0.83382594  0.77973840     0.45800
H1820       H  0.66570156  0.83450290  0.80751741    -0.03300
C1821       C  0.63966490  0.80145046  0.73044448    -0.17000
C1822       C  0.69826080  0.83631652  0.73083957    -0.16800
C1823       C  0.66281924  0.85980629  0.72865616    -0.17100
C1824       C  0.63921973  0.80229913  0.76468884    -0.17100
C1825       C  0.69794631  0.83777713  0.76514677    -0.16700
C1826       C  0.66226143  0.86053330  0.76296600    -0.17000
C1827       C  0.85370475  0.84969953  0.63847120     0.80500
N1828       N  0.85728380  0.82428281  0.64829465    -0.77800
C1829       C  0.83410550  0.80038756  0.66741623     0.82900
N1830       N  0.80770254  0.80216943  0.67735807    -0.77800
C1831       C  0.80388019  0.82751456  0.66847819     0.83000
N1832       N  0.82696471  0.85123965  0.64886053    -0.79500
C1833       C  0.85506821  0.85647832  0.85783406     0.80500
N1834       N  0.85524655  0.82879076  0.84919459    -0.77800
C1835       C  0.83066148  0.80549897  0.83064930     0.82900
N1836       N  0.80575290  0.81007291  0.82122134    -0.77800
C1837       C  0.80525216  0.83742516  0.82940342     0.83000
N1838       N  0.83008221  0.86080058  0.84741470    -0.79500
C1839       C  0.64545197  0.99765775  0.85995998     0.80500
N1840       N  0.67236389  0.52589711  0.85106388    -0.77800
C1841       C  0.69582145  0.52583836  0.83146326     0.82900
N1842       N  0.69217785  0.49728489  0.82059395    -0.77800
C1843       C  0.66530052  0.96899627  0.82870979     0.83000
N1844       N  0.64179006  0.96912589  0.84827859    -0.79500
C1845       C  0.64862843  0.00145188  0.63916899     0.80500
N1846       N  0.67409503  0.52960924  0.65075033    -0.77800
C1847       C  0.69750170  0.52911661  0.66990629     0.82900
N1848       N  0.69513353  0.00041064  0.67777108    -0.77800
C1849       C  0.66992930  0.97209054  0.66694651     0.83000
N1850       N  0.64663906  0.97270978  0.64761050    -0.79500
C1851       C  0.99828701  0.64566497  0.64194281     0.80500
N1852       N  0.96955034  0.64278778  0.65273951    -0.77800
C1853       C  0.96946880  0.66598832  0.67256216     0.82900
N1854       N  0.49818421  0.69181426  0.68158931    -0.77800
C1855       C  0.52691988  0.69507093  0.67132808     0.83000
N1856       N  0.52693852  0.67182528  0.65157915    -0.79500
C1857       C  0.00151048  0.64757830  0.85909254     0.80500
N1858       N  0.52972385  0.67389321  0.84871162    -0.77800
C1859       C  0.52894855  0.69710871  0.82959089     0.82900
N1860       N  0.49981158  0.69393292  0.82097570    -0.77800
C1861       C  0.97156749  0.66766799  0.83064938     0.83000
N1862       N  0.97247281  0.64446980  0.84952145    -0.79500
O1863       O  0.54055728  0.98001285  0.52813433    -0.85100
O1864       O  0.97514042  0.95023646  0.54380440    -0.82100
C1865       C  0.94656015  0.94570090  0.54634736     0.98400
O1866       O  0.93687302  0.95977320  0.52649928    -0.82200
O1867       O  0.97190695  0.52480566  0.54291144    -0.84800
C1868       C  0.49618760  0.55288735  0.54611832     1.02900
O1869       O  0.52030214  0.56264844  0.52640588    -0.77600
O1870       O  0.55190440  0.52892905  0.54285357    -0.77800
C1871       C  0.55559799  0.50461333  0.54672110     1.02800
O1872       O  0.52425066  0.97334712  0.95842410    -0.85100
O1873       O  0.95917251  0.93883708  0.97407342    -0.82200
C1874       C  0.94571054  0.94875474  0.95362280     0.98400
O1875       O  0.94922398  0.97671735  0.95692888    -0.82200
O1876       O  0.97816063  0.54146147  0.97355880    -0.84800
C1877       C  0.50207365  0.55542087  0.95370122     1.02900
O1878       O  0.52638285  0.55142048  0.95684438    -0.77600
O1879       O  0.56189255  0.52191890  0.97354876    -0.77800
C1880       C  0.55226933  0.99756433  0.95461799     1.02800
Cr1881     Cr  0.99979862  0.96365781  0.50112457     1.93700
Cr1882     Cr  0.96206587  0.00067618  0.00003199     1.93200
Cr1883     Cr  0.53702716  0.53818866  0.99995147     1.39100
O1884       O  0.99969366  0.00086307  0.50052222    -1.22800
C1885       C  0.97294385  0.59984413  0.89718058    -0.21000
C1886       C  0.00203871  0.62304659  0.88175121    -0.09100
C1887       C  0.53109529  0.62284365  0.88918155     0.29800
C1888       C  0.53082754  0.60025739  0.91183482    -0.21000
C1889       C  0.50180600  0.57767171  0.92785094    -0.09100
C1890       C  0.97273623  0.57756666  0.91996976     0.29800
F1891       F  0.94392465  0.55603303  0.93434934    -0.19600
H1892       H  0.95014209  0.59919116  0.89215036     0.18100
H1893       H  0.55356304  0.60096443  0.91741901     0.18100
F1894       F  0.55987494  0.64449903  0.87487158    -0.19600
C1895       C  0.97008190  0.59071487  0.61512307    -0.21000
C1896       C  0.99826614  0.62120771  0.61876147    -0.09100
C1897       C  0.52586808  0.62834715  0.59914162     0.29800
C1898       C  0.52490139  0.60580625  0.57612041    -0.21000
C1899       C  0.49661990  0.57549702  0.57206505    -0.09100
C1900       C  0.96922263  0.56799399  0.59219080     0.29800
F1901       F  0.94141096  0.53900770  0.58943621    -0.19600
H1902       H  0.94851659  0.58441338  0.62998463     0.18100
H1903       H  0.54645546  0.61238948  0.56112096     0.18100
F1904       F  0.55361433  0.65747973  0.60125854    -0.19600
C1905       C  0.62712628  0.53215091  0.60661558    -0.21000
C1906       C  0.62370699  0.00229601  0.61702086    -0.09100
C1907       C  0.59671819  0.97356007  0.60527634     0.29800
C1908       C  0.57459806  0.97481223  0.58312759    -0.21000
C1909       C  0.57834532  0.50453832  0.57223923    -0.09100
C1910       C  0.60473034  0.53335014  0.58457871     0.29800
F1911       F  0.60969268  0.56267338  0.57442583    -0.19600
H1912       H  0.64751096  0.55477165  0.61508257     0.18100
H1913       H  0.55441032  0.95222163  0.57428188     0.18100
F1914       F  0.59158543  0.94403205  0.61479566    -0.19600
C1915       C  0.60568287  0.02526925  0.92484568    -0.21000
C1916       C  0.57492949  0.99752376  0.92888167    -0.09100
C1917       C  0.56706902  0.47009081  0.90907654     0.29800
C1918       C  0.58994095  0.47039591  0.88648247    -0.21000
C1919       C  0.62091235  0.99802984  0.88292998    -0.09100
C1920       C  0.62840497  0.02565769  0.90225221     0.29800
F1921       F  0.65803381  0.05289236  0.90027381    -0.19600
H1922       H  0.61252146  0.04680983  0.93961775     0.18100
H1923       H  0.58337944  0.44885463  0.87182580     0.18100
F1924       F  0.53757212  0.44280067  0.91178408    -0.19600
C1925       C  0.92157068  0.89564429  0.92345732    -0.21000
C1926       C  0.92468897  0.92652598  0.92679187    -0.09100
C1927       C  0.90671854  0.93500288  0.90513925     0.29800
C1928       C  0.88493127  0.91243932  0.88217812    -0.21000
C1929       C  0.88079052  0.88108356  0.87987291    -0.09100
C1930       C  0.90007676  0.87322479  0.90028215     0.29800
F1931       F  0.89729321  0.84344109  0.89906007    -0.19600
H1932       H  0.93532122  0.88842704  0.93937949     0.18100
H1933       H  0.87088020  0.91945400  0.86646940     0.18100
F1934       F  0.90951924  0.96478410  0.90654567    -0.19600
C1935       C  0.87211111  0.89853778  0.60197406    -0.21000
C1936       C  0.87836543  0.87516023  0.61615418    -0.09100
C1937       C  0.90790500  0.87607604  0.60799628     0.29800
C1938       C  0.93019336  0.89955434  0.58602688    -0.21000
C1939       C  0.92358815  0.92244980  0.57135405    -0.09100
C1940       C  0.89426817  0.92179347  0.57973193     0.29800
F1941       F  0.88684175  0.94356069  0.56647279    -0.19600
H1942       H  0.84971962  0.89860403  0.60763385     0.18100
H1943       H  0.95242456  0.89932080  0.57992324     0.18100
F1944       F  0.91541244  0.85425250  0.62093074    -0.19600
C1945       C  0.69620499  0.94251315  0.69098419    -0.21000
C1946       C  0.66805570  0.94136863  0.67784342    -0.09100
C1947       C  0.63854974  0.91158020  0.67819277     0.29800
C1948       C  0.63714955  0.88426331  0.69318101    -0.21000
C1949       C  0.66502174  0.88637057  0.70783025    -0.09100
C1950       C  0.69470702  0.91538109  0.70588221     0.29800
F1951       F  0.72196033  0.91784423  0.71987191    -0.19600
H1952       H  0.71940058  0.96482904  0.69078039     0.18100
H1953       H  0.61404023  0.86192171  0.69477144     0.18100
F1954       F  0.61075265  0.90922832  0.66592474    -0.19600
C1955       C  0.68870166  0.93350405  0.81816550    -0.21000
C1956       C  0.66214500  0.93879904  0.81555888    -0.09100
C1957       C  0.63466241  0.91715102  0.79709202     0.29800
C1958       C  0.63445712  0.89120746  0.78035671    -0.21000
C1959       C  0.66137823  0.88641439  0.78245086    -0.09100
C1960       C  0.68818401  0.90723250  0.80211455     0.29800
F1961       F  0.71452178  0.90311820  0.80442576    -0.19600
H1962       H  0.71016234  0.95018191  0.83212309     0.18100
H1963       H  0.61360551  0.87518888  0.76528585     0.18100
F1964       F  0.60902319  0.92225279  0.79358243    -0.19600
C1965       C  0.78273260  0.86773516  0.79918323    -0.21000
C1966       C  0.77756215  0.84096123  0.81841080    -0.09100
C1967       C  0.74562188  0.81534438  0.82347358     0.29800
C1968       C  0.71943128  0.81558987  0.80784244    -0.21000
C1969       C  0.72488587  0.84097832  0.78637095    -0.09100
C1970       C  0.75651286  0.86769397  0.78301479     0.29800
F1971       F  0.76208147  0.89311414  0.76324307    -0.19600
H1972       H  0.80720322  0.88768435  0.79509451     0.18100
H1973       H  0.69513144  0.79500623  0.81082956     0.18100
F1974       F  0.73996249  0.78954373  0.84264890    -0.19600
C1975       C  0.74413357  0.85702582  0.68943957    -0.21000
C1976       C  0.72339040  0.83304486  0.71200149    -0.09100
C1977       C  0.72762232  0.80639459  0.71811706     0.29800
C1978       C  0.75339078  0.80465502  0.70332241    -0.21000
C1979       C  0.77539702  0.82929567  0.68174306    -0.09100
C1980       C  0.77009380  0.85531057  0.67438618     0.29800
F1981       F  0.79017871  0.87936077  0.65327243    -0.19600
H1982       H  0.74082446  0.87754845  0.68433228     0.18100
H1983       H  0.75626648  0.78403821  0.70933378     0.18100
F1984       F  0.70698455  0.78217674  0.73882864    -0.19600
C1985       C  0.61291793  0.74780618  0.79134845    -0.21000
C1986       C  0.61304912  0.77682278  0.78507985    -0.09100
C1987       C  0.58673651  0.78041276  0.79565214     0.29800
C1988       C  0.55992568  0.75468082  0.81125118    -0.21000
C1989       C  0.55917293  0.72514494  0.81685853    -0.09100
C1990       C  0.58624967  0.72210813  0.80736599     0.29800
F1991       F  0.58608780  0.69373858  0.81159618    -0.19600
H1992       H  0.63306269  0.74478457  0.78291049     0.18100
H1993       H  0.53937293  0.75759591  0.81831029     0.18100
F1994       F  0.58632076  0.80823264  0.78937646    -0.19600
C1995       C  0.58589801  0.72169734  0.68716670    -0.21000
C1996       C  0.55749367  0.72366245  0.68235465    -0.09100
C1997       C  0.55778439  0.75263835  0.69067764     0.29800
C1998       C  0.58540706  0.77841981  0.70471588    -0.21000
C1999       C  0.61303836  0.77579327  0.71092112    -0.09100
C2000       C  0.61349798  0.74756373  0.70168270     0.29800
F2001       F  0.64003442  0.74455006  0.70803001    -0.19600
H2002       H  0.58621191  0.69964391  0.68116673     0.18100
H2003       H  0.58483980  0.80009248  0.71198867     0.18100
F2004       F  0.53118677  0.75595526  0.68584072    -0.19600
C2005       C  0.91646811  0.63533263  0.80525726    -0.21000
C2006       C  0.94038152  0.66435176  0.81970542    -0.09100
C2007       C  0.93548333  0.69114805  0.82097676     0.29800
C2008       C  0.90769508  0.68930262  0.80682297    -0.21000
C2009       C  0.88471032  0.66096173  0.79082105    -0.09100
C2010       C  0.88885712  0.63368476  0.79060926     0.29800
F2011       F  0.86675460  0.60589567  0.77535150    -0.19600
H2012       H  0.91994429  0.61450594  0.80390321     0.18100
H2013       H  0.90496258  0.71054858  0.80683079     0.18100
F2014       F  0.95790547  0.71930935  0.83538623    -0.19600
C2015       C  0.94012212  0.69254978  0.69638014    -0.21000
C2016       C  0.93898189  0.66404036  0.68482138    -0.09100
C2017       C  0.90950703  0.63444595  0.68749420     0.29800
C2018       C  0.88250671  0.63346112  0.70329566    -0.21000
C2019       C  0.88471451  0.66182855  0.71641200    -0.09100
C2020       C  0.91328872  0.69147251  0.71200768     0.29800
F2021       F  0.91557911  0.71925110  0.72394740    -0.19600
H2022       H  0.96217683  0.71581051  0.69411799     0.18100
H2023       H  0.86038522  0.61043778  0.70648859     0.18100
F2024       F  0.90722597  0.60638238  0.67652653    -0.19600
C2025       C  0.81300376  0.71641540  0.69270618    -0.21000
C2026       C  0.83832688  0.72309771  0.71497258    -0.10600
C2027       C  0.86458589  0.75484262  0.71789701     0.29800
C2028       C  0.86446883  0.77993450  0.69999105    -0.21000
C2029       C  0.83793950  0.77353968  0.67957486    -0.09100
C2030       C  0.81252062  0.74156101  0.67542072     0.29800
F2031       F  0.78669210  0.73490154  0.65561557    -0.19600
H2032       H  0.79274986  0.69197705  0.69012322     0.18100
H2033       H  0.88403449  0.80456604  0.70363455     0.18100
F2034       F  0.88973375  0.76165729  0.73877879    -0.19600
C2035       C  0.85836167  0.74429687  0.81077400    -0.21000
C2036       C  0.83304804  0.72273387  0.78995262    -0.09100
C2037       C  0.80576541  0.72656543  0.78553321     0.29800
C2038       C  0.80477904  0.75275986  0.79996401    -0.21000
C2039       C  0.83100947  0.77584720  0.81917722    -0.09100
C2040       C  0.85751898  0.77076677  0.82525914     0.29800
F2041       F  0.88314295  0.79181574  0.84412810    -0.19600
H2042       H  0.87944691  0.74151039  0.81462693     0.18100
H2043       H  0.78366551  0.75534258  0.79516280     0.18100
F2044       F  0.78039482  0.70538787  0.76640211    -0.19600
C2045       C  0.72176136  0.58456857  0.81714765    -0.21000
C2046       C  0.72424062  0.55643785  0.82039050    -0.09100
C2047       C  0.75329076  0.55725911  0.81051196     0.29800
C2048       C  0.77866021  0.58523292  0.79643234    -0.21000
C2049       C  0.77539158  0.61256586  0.79171026    -0.09100
C2050       C  0.74712585  0.61246151  0.80257228     0.29800
F2051       F  0.74350889  0.63871579  0.79767649    -0.19600
H2052       H  0.69960515  0.58448191  0.82437572     0.18100
H2053       H  0.80040485  0.58516836  0.78784407     0.18100
F2054       F  0.75699255  0.53087319  0.81375339    -0.19600
C2055       C  0.71999029  0.58468515  0.69395149    -0.21000
C2056       C  0.72475024  0.55906186  0.68371371    -0.09100
C2057       C  0.75506435  0.56104421  0.68958248     0.29800
C2058       C  0.77960601  0.58764924  0.70626318    -0.21000
C2059       C  0.77434353  0.61247396  0.71756571    -0.09100
C2060       C  0.74459760  0.61120466  0.71106377     0.29800
F2061       F  0.73921396  0.63521871  0.72183794    -0.19600
H2062       H  0.69678664  0.58353673  0.68992846     0.18100
H2063       H  0.80247823  0.58844118  0.71130021     0.18100
F2064       F  0.76090834  0.53712676  0.67948480    -0.19600
loop_ 
_geom_bond_atom_site_label_1 
_geom_bond_atom_site_label_2 
_geom_bond_distance 
_geom_bond_site_symmetry_2 
_ccdc_geom_bond_type 
C1            H2   1.112       .  S
C1            C7   1.525       .  S
C1            C6   1.526       .  S
C1            C5   1.529       .  S
C3            H4   1.111       .  S
C3            C9   1.534       .  S
C3            C8   1.535       .  S
C3           C10   1.538       .  S
C5            C8   1.375       .  D
C5          C220   1.471       .  S
C6            C9   1.370       .  D
C6          C253   1.471       .  S
C7           C10   1.371       .  D
C7          C213   1.470       .  S
C8          C230   1.482       .  S
C9          C243   1.466       .  S
C10         C203   1.476       .  S
C11          H12   1.111       .  S
C11          C17   1.535       .  S
C11          C16   1.535       .  S
C11          C15   1.532       .  S
C13          H14   1.112       .  S
C13          C19   1.530       .  S
C13          C18   1.530       .  S
C13          C20   1.529       .  S
C15          C18   1.370       .  D
C15         C193   1.471       .  S
C16          C19   1.374       .  D
C16         C170   1.475       .  S
C17          C20   1.373       .  D
C17         C143   1.475       .  S
C18         C180   1.473       .  S
C19         C163   1.478       .  S
C20         C153   1.474       .  S
C21          N22   1.361       .  A
C21          N26   1.365       .  A
C21         C130   1.488       .  S
N22          C23   1.355       .  A
C23          N24   1.350       .  A
C23         C223   1.461       .  S
N24          C25   1.354       .  A
C25          N26   1.361       .  A
C25         C173   1.486       .  S
C27          N28   1.365       .  A
C27          N32   1.363       .  A
C27         C123   1.489       .  S
N28          C29   1.362       .  A
C29          N30   1.355       .  A
C29         C233   1.490       .  S
N30          C31   1.353       .  A
C31          N32   1.357       .  A
C31         C160   1.470       .  S
C33          N38   1.362       .  A
C33         N550   1.360       .  A
C33         C113   1.483       .  S
N34          C35   1.356       .  A
N34         C549   1.360   1_545  A
C35          N36   1.353   1_545  A
C35         C240   1.474       .  S
N36         C553   1.353       .  A
C37          N38   1.358       .  A
C37         N552   1.353       .  A
C37         C150   1.465       .  S
C39          N44   1.366       .  A
C39         N556   1.363       .  A
C39         C100   1.494       .  S
N40          C41   1.359       .  A
N40         C555   1.363       .  A
C41         N558   1.351       .  A
C41         C250   1.475       .  S
N42          C43   1.353       .  A
N42         C557   1.351       .  A
C43          N44   1.361       .  A
C43         C140   1.486       .  S
C45          N46   1.364       .  A
C45        N1082   1.364       .  A
C45          C90   1.486       .  S
N46          C47   1.359       .  A
C47        N1080   1.352       .  A
C47         C210   1.479       .  S
N48          C49   1.350   1_655  A
N48        C1079   1.352       .  A
C49          N50   1.358       .  A
C49         C190   1.478       .  S
N50        C1077   1.364   1_455  A
C51          N56   1.362       .  A
C51        N1084   1.362       .  A
C51          C80   1.489       .  S
N52          C53   1.360       .  A
N52        C1083   1.362       .  A
C53          N54   1.355   1_455  A
C53         C183   1.477       .  S
N54        C1087   1.354       .  A
C55          N56   1.357       .  A
C55        N1086   1.354       .  A
C55         C200   1.471       .  S
O57       Cr1107   2.003   1_455  S
O57         C581   1.266       .  A
O58         Cr75   1.981       .  S
O58          C59   1.261       .  A
C59         C133   1.484       .  S
C59          O60   1.264       .  A
O60        Cr334   2.005       .  S
O61        Cr850   1.986       .  S
O61        C1094   1.263       .  A
C62          C93   1.486       .  S
C62          O63   1.266   1_655  A
C62        O1093   1.263       .  A
O63        Cr335   2.000   1_554  S
O64        Cr335   1.989   1_554  S
O64          C65   1.263       .  A
C65         C103   1.488       .  S
C65         O573   1.266   1_545  A
O66       Cr1365   1.979   1_455  S
O66          C74   1.260       .  A
O67        Cr333   2.004       .  S
O67          C68   1.266       .  A
C68         C120   1.489       .  S
C68          O69   1.263       .  A
O69         Cr76   1.988       .  S
O70        Cr592   2.000       .  S
O70        C1103   1.264       .  A
C71          C83   1.486       .  S
C71          O72   1.262       .  A
C71        O1102   1.264   1_455  A
O72         Cr77   1.987       .  S
O73         Cr77   1.996       .  S
O73         C590   1.264   1_545  A
C74         C110   1.482       .  S
C74         O589   1.264       .  A
Cr75       O1089   2.003       .  S
Cr75       O1356   1.979   1_554  S
Cr75        O325   2.004   1_554  S
Cr75         O78   1.773       .  S
Cr76        O318   2.005       .  S
Cr76        O835   1.985       .  S
Cr76        O586   2.000       .  S
Cr76        O336   1.775       .  S
Cr77        O321   2.000       .  S
Cr77        O322   1.989       .  S
Cr77       O1884   1.776   1_455  S
O78        Cr334   1.775       .  S
O78       Cr1883   1.776   1_554  S
C79          C80   1.406       .  A
C79          C84   1.396       .  A
C79          H86   1.083       .  S
C80        C1113   1.412       .  A
C81          C82   1.402       .  A
C81        C1112   1.412       .  A
C81          F88   1.357       .  S
C82          C83   1.406       .  A
C82          H87   1.083       .  S
C83        C1116   1.409   1_455  A
C84        C1115   1.409       .  A
C84          F85   1.358       .  S
C89          C90   1.408       .  A
C89          C94   1.401       .  A
C89          H96   1.083       .  S
C90        C1123   1.408       .  A
C91          C92   1.395       .  A
C91        C1122   1.408   1_455  A
C91          F98   1.358       .  S
C92          C93   1.407   1_455  A
C92          H97   1.083       .  S
C93        C1126   1.408       .  A
C94        C1125   1.408       .  A
C94          F95   1.357       .  S
C99         C104   1.404       .  A
C99         C616   1.411       .  A
C99         H106   1.083       .  S
C100        C101   1.410       .  A
C100        C615   1.411       .  A
C101        C102   1.398       .  A
C101        F108   1.357       .  S
C102        C619   1.405       .  A
C102        H107   1.083       .  S
C103        C104   1.408       .  A
C103        C618   1.405   1_545  A
C104        F105   1.358       .  S
C109        C110   1.405       .  A
C109        C114   1.393       .  A
C109        H116   1.083       .  S
C110        C627   1.409       .  A
C111        C112   1.400       .  A
C111        C626   1.409       .  A
C111        F118   1.357       .  S
C112        C629   1.407       .  A
C112        H117   1.083       .  S
C113        C114   1.409       .  A
C113        C628   1.407       .  A
C114        F115   1.358       .  S
C119        C120   1.408       .  A
C119        C124   1.399       .  A
C119        H126   1.083       .  S
C120        C121   1.408       .  A
C121        C122   1.401       .  A
C121        F128   1.357       .  S
C122        C123   1.408       .  A
C122        H127   1.083       .  S
C123        C124   1.409       .  A
C124        F125   1.357       .  S
C129        C130   1.406       .  A
C129        C134   1.398       .  A
C129        H136   1.083       .  S
C130        C131   1.412       .  A
C131        C132   1.398       .  A
C131        F138   1.357       .  S
C132        C133   1.404       .  A
C132        H137   1.083       .  S
C133        C134   1.409       .  A
C134        F135   1.358       .  S
C139        C140   1.409       .  A
C139        C144   1.392       .  A
C139        H146   1.083       .  S
C140        C141   1.411       .  A
C141        C142   1.404       .  A
C141        F148   1.357       .  S
C142        C143   1.402       .  A
C142        H147   1.083       .  S
C143        C144   1.398       .  A
C144        F145   1.358       .  S
C149        C150   1.402       .  A
C149        C154   1.393       .  A
C149        H156   1.084       .  S
C150        C151   1.404       .  A
C151        C152   1.399       .  A
C151        F158   1.357       .  S
C152        C153   1.403       .  A
C152        H157   1.083       .  S
C153        C154   1.402       .  A
C154        F155   1.357       .  S
C159        C160   1.402       .  A
C159        C164   1.400       .  A
C159        H166   1.083       .  S
C160        C161   1.406       .  A
C161        C162   1.395       .  A
C161        F168   1.357       .  S
C162        C163   1.399       .  A
C162        H167   1.084       .  S
C163        C164   1.407       .  A
C164        F165   1.358       .  S
C169        C170   1.400       .  A
C169        C174   1.402       .  A
C169        H176   1.083       .  S
C170        C171   1.401       .  A
C171        C172   1.390       .  A
C171        F178   1.358       .  S
C172        C173   1.409       .  A
C172        H177   1.083       .  S
C173        C174   1.412       .  A
C174        F175   1.357       .  S
C179        C180   1.401       .  A
C179        C184   1.399       .  A
C179        H186   1.083       .  S
C180        C181   1.400       .  A
C181        C182   1.396       .  A
C181        F188   1.358       .  S
C182        C183   1.406       .  A
C182        H187   1.083       .  S
C183        C184   1.408       .  A
C184        F185   1.357       .  S
C189        C190   1.406       .  A
C189        C194   1.401       .  A
C189        H196   1.083       .  S
C190        C191   1.411       .  A
C191        C192   1.392       .  A
C191        F198   1.358       .  S
C192        C193   1.396       .  A
C192        H197   1.084       .  S
C193        C194   1.403       .  A
C194        F195   1.357       .  S
C199        C200   1.404       .  A
C199        C204   1.400       .  A
C199        H206   1.083       .  S
C200        C201   1.405       .  A
C201        C202   1.395       .  A
C201        F208   1.357       .  S
C202        C203   1.398       .  A
C202        H207   1.081       .  S
C203        C204   1.406       .  A
C204        F205   1.357       .  S
C209        C210   1.408       .  A
C209        C214   1.389       .  A
C209        H216   1.083       .  S
C210        C211   1.409       .  A
C211        C212   1.401       .  A
C211        F218   1.357       .  S
C212        C213   1.402       .  A
C212        H217   1.082       .  S
C213        C214   1.397       .  A
C214        F215   1.357       .  S
C219        C220   1.399       .  A
C219        C224   1.393       .  A
C219        H226   1.083       .  S
C220        C221   1.405       .  A
C221        C222   1.396       .  A
C221        F228   1.357       .  S
C222        C223   1.401       .  A
C222        H227   1.083       .  S
C223        C224   1.404       .  A
C224        F225   1.358       .  S
C229        C230   1.402       .  A
C229        C234   1.403       .  A
C229        H236   1.081       .  S
C230        C231   1.401       .  A
C231        C232   1.394       .  A
C231        F238   1.358       .  S
C232        C233   1.410       .  A
C232        H237   1.083       .  S
C233        C234   1.412       .  A
C234        F235   1.357       .  S
C239        C240   1.407       .  A
C239        C244   1.398       .  A
C239        H246   1.083       .  S
C240        C241   1.409       .  A
C241        C242   1.392       .  A
C241        F248   1.358       .  S
C242        C243   1.397       .  A
C242        H247   1.084       .  S
C243        C244   1.401       .  A
C244        F245   1.357       .  S
C249        C250   1.405       .  A
C249        C254   1.400       .  A
C249        H256   1.084       .  S
C250        C251   1.410       .  A
C251        C252   1.392       .  A
C251        F258   1.358       .  S
C252        C253   1.396       .  A
C252        H257   1.083       .  S
C253        C254   1.403       .  A
C254        F255   1.357       .  S
C259        H260   1.112       .  S
C259        C265   1.525       .  S
C259        C264   1.526       .  S
C259        C263   1.529       .  S
C261        H262   1.111       .  S
C261        C267   1.534       .  S
C261        C266   1.535       .  S
C261        C268   1.538       .  S
C263        C266   1.375       .  D
C263        C478   1.471       .  S
C264        C267   1.370       .  D
C264        C511   1.471       .  S
C265        C268   1.371       .  D
C265        C471   1.470       .  S
C266        C488   1.482       .  S
C267        C501   1.466       .  S
C268        C461   1.476       .  S
C269        H270   1.111       .  S
C269        C275   1.535       .  S
C269        C274   1.535       .  S
C269        C273   1.532       .  S
C271        H272   1.112       .  S
C271        C277   1.530       .  S
C271        C276   1.530       .  S
C271        C278   1.529       .  S
C273        C276   1.370       .  D
C273        C451   1.471       .  S
C274        C277   1.374       .  D
C274        C428   1.475       .  S
C275        C278   1.373       .  D
C275        C401   1.475       .  S
C276        C438   1.473       .  S
C277        C421   1.478       .  S
C278        C411   1.474       .  S
C279        N280   1.361       .  A
C279        N284   1.365       .  A
C279        C388   1.488       .  S
N280        C281   1.355       .  A
C281        N282   1.350       .  A
C281        C481   1.461       .  S
N282        C283   1.354       .  A
C283        N284   1.361       .  A
C283        C431   1.486       .  S
C285        N286   1.365       .  A
C285        N290   1.363       .  A
C285        C381   1.489       .  S
N286        C287   1.362       .  A
C287        N288   1.355       .  A
C287        C491   1.490       .  S
N288        C289   1.353       .  A
C289        N290   1.357       .  A
C289        C418   1.470       .  S
C291        N808   1.360       .  A
C291        N296   1.362       .  A
C291        C371   1.483       .  S
N292        C807   1.360   1_545  A
N292        C293   1.356       .  A
C293        N294   1.353   1_545  A
C293        C498   1.474       .  S
N294        C811   1.353       .  A
C295        N810   1.353       .  A
C295        N296   1.358       .  A
C295        C408   1.465       .  S
C297        N814   1.363       .  A
C297        N302   1.366       .  A
C297        C358   1.494       .  S
N298        C813   1.363       .  A
N298        C299   1.359       .  A
C299        N816   1.351       .  A
C299        C508   1.475       .  S
N300        C815   1.351       .  A
N300        C301   1.353       .  A
C301        N302   1.361       .  A
C301        C398   1.486       .  S
C303        N304   1.364       .  A
C303       N1340   1.364       .  A
C303        C348   1.486       .  S
N304        C305   1.359       .  A
C305       N1338   1.352       .  A
C305        C468   1.479       .  S
N306       C1337   1.352       .  A
N306        C307   1.350   1_655  A
C307        N308   1.358       .  A
C307        C448   1.478       .  S
N308       C1335   1.364   1_455  A
C309       N1342   1.362       .  A
C309        N314   1.362       .  A
C309        C338   1.489       .  S
N310       C1341   1.362       .  A
N310        C311   1.360       .  A
C311        N312   1.355   1_455  A
C311        C441   1.477       .  S
N312       C1345   1.354       .  A
C313       N1344   1.354       .  A
C313        N314   1.357       .  A
C313        C458   1.471       .  S
O315      Cr1365   2.003   1_455  S
O315        C839   1.266       .  A
O316       Cr333   1.981       .  S
O316        C317   1.261       .  A
C317        C391   1.484       .  S
C317        O318   1.264       .  A
O319       Cr592   1.985       .  S
O319       C1352   1.263       .  A
C320        C351   1.486       .  S
C320       O1351   1.263       .  A
C320        O321   1.266   1_655  A
O322        C323   1.263       .  A
C323        C361   1.488       .  S
C323        O831   1.266   1_545  A
O324      Cr1107   1.979   1_456  S
O324        C332   1.260       .  A
O325        C326   1.266       .  A
C326        C378   1.489       .  S
C326        O327   1.263       .  A
O327       Cr334   1.988   1_556  S
O328       Cr850   2.000   1_556  S
O328       C1361   1.264       .  A
C329        C341   1.486       .  S
C329       O1360   1.264   1_455  A
C329        O330   1.262       .  A
O330       Cr335   1.987       .  S
O331       Cr335   1.996       .  S
O331        C848   1.264   1_545  A
C332        C368   1.482       .  S
C332        O847   1.264       .  A
Cr333      O1347   2.003       .  S
Cr333      O1098   1.979       .  S
Cr333       O336   1.773       .  S
Cr334       O577   1.985       .  S
Cr334       O844   2.000   1_554  S
Cr335      O1626   1.776   1_456  S
O336      Cr1625   1.776       .  S
C337        C338   1.406       .  A
C337        C342   1.396       .  A
C337        H344   1.083       .  S
C338       C1371   1.412       .  A
C339       C1370   1.412       .  A
C339        C340   1.402       .  A
C339        F346   1.357       .  S
C340        C341   1.406       .  A
C340        H345   1.083       .  S
C341       C1374   1.409   1_455  A
C342       C1373   1.409       .  A
C342        F343   1.358       .  S
C347        C348   1.408       .  A
C347        C352   1.401       .  A
C347        H354   1.083       .  S
C348       C1381   1.408       .  A
C349       C1380   1.408   1_455  A
C349        C350   1.395       .  A
C349        F356   1.358       .  S
C350        C351   1.407   1_455  A
C350        H355   1.083       .  S
C351       C1384   1.408       .  A
C352       C1383   1.408       .  A
C352        F353   1.357       .  S
C357        C874   1.411       .  A
C357        C362   1.404       .  A
C357        H364   1.083       .  S
C358        C873   1.411       .  A
C358        C359   1.410       .  A
C359        C360   1.398       .  A
C359        F366   1.357       .  S
C360        C877   1.405       .  A
C360        H365   1.083       .  S
C361        C876   1.405   1_545  A
C361        C362   1.408       .  A
C362        F363   1.358       .  S
C367        C368   1.405       .  A
C367        C372   1.393       .  A
C367        H374   1.083       .  S
C368        C885   1.409       .  A
C369        C884   1.409       .  A
C369        C370   1.400       .  A
C369        F376   1.357       .  S
C370        C887   1.407       .  A
C370        H375   1.083       .  S
C371        C886   1.407       .  A
C371        C372   1.409       .  A
C372        F373   1.358       .  S
C377        C378   1.408       .  A
C377        C382   1.399       .  A
C377        H384   1.083       .  S
C378        C379   1.408       .  A
C379        C380   1.401       .  A
C379        F386   1.357       .  S
C380        C381   1.408       .  A
C380        H385   1.083       .  S
C381        C382   1.409       .  A
C382        F383   1.357       .  S
C387        C388   1.406       .  A
C387        C392   1.398       .  A
C387        H394   1.083       .  S
C388        C389   1.412       .  A
C389        C390   1.398       .  A
C389        F396   1.357       .  S
C390        C391   1.404       .  A
C390        H395   1.083       .  S
C391        C392   1.409       .  A
C392        F393   1.358       .  S
C397        C398   1.409       .  A
C397        C402   1.392       .  A
C397        H404   1.083       .  S
C398        C399   1.411       .  A
C399        C400   1.404       .  A
C399        F406   1.357       .  S
C400        C401   1.402       .  A
C400        H405   1.083       .  S
C401        C402   1.398       .  A
C402        F403   1.358       .  S
C407        C408   1.402       .  A
C407        C412   1.393       .  A
C407        H414   1.084       .  S
C408        C409   1.404       .  A
C409        C410   1.399       .  A
C409        F416   1.357       .  S
C410        C411   1.403       .  A
C410        H415   1.083       .  S
C411        C412   1.402       .  A
C412        F413   1.357       .  S
C417        C418   1.402       .  A
C417        C422   1.400       .  A
C417        H424   1.083       .  S
C418        C419   1.406       .  A
C419        C420   1.395       .  A
C419        F426   1.357       .  S
C420        C421   1.399       .  A
C420        H425   1.084       .  S
C421        C422   1.407       .  A
C422        F423   1.358       .  S
C427        C428   1.400       .  A
C427        C432   1.402       .  A
C427        H434   1.083       .  S
C428        C429   1.401       .  A
C429        C430   1.390       .  A
C429        F436   1.358       .  S
C430        C431   1.409       .  A
C430        H435   1.083       .  S
C431        C432   1.412       .  A
C432        F433   1.357       .  S
C437        C438   1.401       .  A
C437        C442   1.399       .  A
C437        H444   1.083       .  S
C438        C439   1.400       .  A
C439        C440   1.396       .  A
C439        F446   1.358       .  S
C440        C441   1.406       .  A
C440        H445   1.083       .  S
C441        C442   1.408       .  A
C442        F443   1.357       .  S
C447        C448   1.406       .  A
C447        C452   1.401       .  A
C447        H454   1.083       .  S
C448        C449   1.411       .  A
C449        C450   1.392       .  A
C449        F456   1.358       .  S
C450        C451   1.396       .  A
C450        H455   1.084       .  S
C451        C452   1.403       .  A
C452        F453   1.357       .  S
C457        C458   1.404       .  A
C457        C462   1.400       .  A
C457        H464   1.083       .  S
C458        C459   1.405       .  A
C459        C460   1.395       .  A
C459        F466   1.357       .  S
C460        C461   1.398       .  A
C460        H465   1.081       .  S
C461        C462   1.406       .  A
C462        F463   1.357       .  S
C467        C468   1.408       .  A
C467        C472   1.389       .  A
C467        H474   1.083       .  S
C468        C469   1.409       .  A
C469        C470   1.401       .  A
C469        F476   1.357       .  S
C470        C471   1.402       .  A
C470        H475   1.082       .  S
C471        C472   1.397       .  A
C472        F473   1.357       .  S
C477        C478   1.399       .  A
C477        C482   1.393       .  A
C477        H484   1.083       .  S
C478        C479   1.405       .  A
C479        C480   1.396       .  A
C479        F486   1.357       .  S
C480        C481   1.401       .  A
C480        H485   1.083       .  S
C481        C482   1.404       .  A
C482        F483   1.358       .  S
C487        C488   1.402       .  A
C487        C492   1.403       .  A
C487        H494   1.081       .  S
C488        C489   1.401       .  A
C489        C490   1.394       .  A
C489        F496   1.358       .  S
C490        C491   1.410       .  A
C490        H495   1.083       .  S
C491        C492   1.412       .  A
C492        F493   1.357       .  S
C497        C498   1.407       .  A
C497        C502   1.398       .  A
C497        H504   1.083       .  S
C498        C499   1.409       .  A
C499        C500   1.392       .  A
C499        F506   1.358       .  S
C500        C501   1.397       .  A
C500        H505   1.084       .  S
C501        C502   1.401       .  A
C502        F503   1.357       .  S
C507        C508   1.405       .  A
C507        C512   1.400       .  A
C507        H514   1.084       .  S
C508        C509   1.410       .  A
C509        C510   1.392       .  A
C509        F516   1.358       .  S
C510        C511   1.396       .  A
C510        H515   1.083       .  S
C511        C512   1.403       .  A
C512        F513   1.357       .  S
C517        H518   1.112       .  S
C517        C523   1.525       .  S
C517        C522   1.526       .  S
C517        C521   1.529       .  S
C519        H520   1.111       .  S
C519        C525   1.534       .  S
C519        C524   1.535       .  S
C519        C526   1.538       .  S
C521        C524   1.375       .  D
C521        C736   1.471       .  S
C522        C525   1.370       .  D
C522        C769   1.471       .  S
C523        C526   1.371       .  D
C523        C729   1.470       .  S
C524        C746   1.482       .  S
C525        C759   1.466       .  S
C526        C719   1.476       .  S
C527        H528   1.111       .  S
C527        C533   1.535       .  S
C527        C532   1.535       .  S
C527        C531   1.532       .  S
C529        H530   1.112       .  S
C529        C535   1.530       .  S
C529        C534   1.530       .  S
C529        C536   1.529       .  S
C531        C534   1.370       .  D
C531        C709   1.471       .  S
C532        C535   1.374       .  D
C532        C686   1.475       .  S
C533        C536   1.373       .  D
C533        C659   1.475       .  S
C534        C696   1.473       .  S
C535        C679   1.478       .  S
C536        C669   1.474       .  S
C537        N538   1.361       .  A
C537        N542   1.365       .  A
C537        C646   1.488       .  S
N538        C539   1.355       .  A
C539        N540   1.350       .  A
C539        C739   1.461       .  S
N540        C541   1.354       .  A
C541        N542   1.361       .  A
C541        C689   1.486       .  S
C543        N544   1.365       .  A
C543        N548   1.363       .  A
C543        C639   1.489       .  S
N544        C545   1.362       .  A
C545        N546   1.355       .  A
C545        C749   1.490       .  S
N546        C547   1.353       .  A
C547        N548   1.357       .  A
C547        C676   1.470       .  S
C549        N554   1.362       .  A
C549        C629   1.483       .  S
N550        C551   1.356       .  A
C551        N552   1.353       .  A
C551        C756   1.474       .  S
C553        N554   1.358       .  A
C553        C666   1.465       .  S
C555        N560   1.366   1_545  A
C555        C616   1.494       .  S
N556        C557   1.359       .  A
C557        C766   1.475       .  S
N558        C559   1.353   1_545  A
C559        N560   1.361       .  A
C559        C656   1.486       .  S
C561        N562   1.364       .  A
C561       N1598   1.364       .  A
C561        C606   1.486       .  S
N562        C563   1.359       .  A
C563       N1596   1.352       .  A
C563        C726   1.479       .  S
N564       C1595   1.352       .  A
N564        C565   1.350   1_655  A
C565        N566   1.358       .  A
C565        C706   1.478       .  S
N566       C1593   1.364   1_455  A
C567       N1600   1.362       .  A
C567        N572   1.362       .  A
C567        C596   1.489       .  S
N568       C1599   1.362       .  A
N568        C569   1.360       .  A
C569        N570   1.355   1_455  A
C569        C699   1.477       .  S
N570       C1603   1.354       .  A
C571       N1602   1.354       .  A
C571        N572   1.357       .  A
C571        C716   1.471       .  S
O573      Cr1623   2.003   1_455  S
O574       Cr591   1.981       .  S
O574        C575   1.261       .  A
C575        C649   1.484       .  S
C575        O576   1.264       .  A
O576       Cr850   2.005   1_565  S
O577       C1610   1.263       .  A
C578        C609   1.486       .  S
C578       O1609   1.263       .  A
C578        O579   1.266   1_655  A
O579       Cr851   2.000   1_554  S
O580       Cr851   1.989   1_554  S
O580        C581   1.263       .  A
C581        C619   1.488       .  S
O582      Cr1881   1.979   1_455  S
O582        C590   1.260       .  A
O583       Cr849   2.004       .  S
O583        C584   1.266       .  A
C584        C636   1.489       .  S
C584        O585   1.263       .  A
O585       Cr592   1.988   1_565  S
O586       C1619   1.264       .  A
C587        C599   1.486       .  S
C587       O1618   1.264   1_455  A
C587        O588   1.262       .  A
O588       Cr593   1.987       .  S
O589       Cr593   1.996       .  S
C590        C626   1.482       .  S
Cr591      O1605   2.003       .  S
Cr591      O1872   1.979   1_554  S
Cr591       O841   2.004   1_554  S
Cr591       O594   1.773   1_565  S
Cr592       O834   2.005   1_545  S
Cr592       O852   1.775       .  S
Cr593       O837   2.000       .  S
Cr593       O838   1.989       .  S
Cr593      O1368   1.776   1_455  S
O594       Cr850   1.775       .  S
O594      Cr1367   1.776   1_554  S
C595        C596   1.406       .  A
C595        C600   1.396       .  A
C595        H602   1.083       .  S
C596       C1629   1.412       .  A
C597       C1628   1.412       .  A
C597        C598   1.402       .  A
C597        F604   1.357       .  S
C598        C599   1.406       .  A
C598        H603   1.083       .  S
C599       C1632   1.409   1_455  A
C600       C1631   1.409       .  A
C600        F601   1.358       .  S
C605        C606   1.408       .  A
C605        C610   1.401       .  A
C605        H612   1.083       .  S
C606       C1639   1.408       .  A
C607       C1638   1.408   1_455  A
C607        C608   1.395       .  A
C607        F614   1.358       .  S
C608        C609   1.407   1_455  A
C608        H613   1.083       .  S
C609       C1642   1.408       .  A
C610       C1641   1.408       .  A
C610        F611   1.357       .  S
C615        C620   1.404       .  A
C615        H622   1.083       .  S
C616        C617   1.410   1_545  A
C617        C618   1.398       .  A
C617        F624   1.357       .  S
C618        H623   1.083       .  S
C619        C620   1.408       .  A
C620        F621   1.358       .  S
C625        C626   1.405   1_545  A
C625        C630   1.393       .  A
C625        H632   1.083       .  S
C627        C628   1.400       .  A
C627        F634   1.357       .  S
C628        H633   1.083       .  S
C629        C630   1.409   1_565  A
C630        F631   1.358       .  S
C635        C636   1.408       .  A
C635        C640   1.399       .  A
C635        H642   1.083       .  S
C636        C637   1.408       .  A
C637        C638   1.401       .  A
C637        F644   1.357       .  S
C638        C639   1.408       .  A
C638        H643   1.083       .  S
C639        C640   1.409       .  A
C640        F641   1.357       .  S
C645        C646   1.406       .  A
C645        C650   1.398       .  A
C645        H652   1.083       .  S
C646        C647   1.412       .  A
C647        C648   1.398       .  A
C647        F654   1.357       .  S
C648        C649   1.404       .  A
C648        H653   1.083       .  S
C649        C650   1.409       .  A
C650        F651   1.358       .  S
C655        C656   1.409       .  A
C655        C660   1.392       .  A
C655        H662   1.083       .  S
C656        C657   1.411       .  A
C657        C658   1.404       .  A
C657        F664   1.357       .  S
C658        C659   1.402       .  A
C658        H663   1.083       .  S
C659        C660   1.398       .  A
C660        F661   1.358       .  S
C665        C666   1.402       .  A
C665        C670   1.393       .  A
C665        H672   1.084       .  S
C666        C667   1.404       .  A
C667        C668   1.399       .  A
C667        F674   1.357       .  S
C668        C669   1.403       .  A
C668        H673   1.083       .  S
C669        C670   1.402       .  A
C670        F671   1.357       .  S
C675        C676   1.402       .  A
C675        C680   1.400       .  A
C675        H682   1.083       .  S
C676        C677   1.406       .  A
C677        C678   1.395       .  A
C677        F684   1.357       .  S
C678        C679   1.399       .  A
C678        H683   1.084       .  S
C679        C680   1.407       .  A
C680        F681   1.358       .  S
C685        C686   1.400       .  A
C685        C690   1.402       .  A
C685        H692   1.083       .  S
C686        C687   1.401       .  A
C687        C688   1.390       .  A
C687        F694   1.358       .  S
C688        C689   1.409       .  A
C688        H693   1.083       .  S
C689        C690   1.412       .  A
C690        F691   1.357       .  S
C695        C696   1.401       .  A
C695        C700   1.399       .  A
C695        H702   1.083       .  S
C696        C697   1.400       .  A
C697        C698   1.396       .  A
C697        F704   1.358       .  S
C698        C699   1.406       .  A
C698        H703   1.083       .  S
C699        C700   1.408       .  A
C700        F701   1.357       .  S
C705        C706   1.406       .  A
C705        C710   1.401       .  A
C705        H712   1.083       .  S
C706        C707   1.411       .  A
C707        C708   1.392       .  A
C707        F714   1.358       .  S
C708        C709   1.396       .  A
C708        H713   1.084       .  S
C709        C710   1.403       .  A
C710        F711   1.357       .  S
C715        C716   1.404       .  A
C715        C720   1.400       .  A
C715        H722   1.083       .  S
C716        C717   1.405       .  A
C717        C718   1.395       .  A
C717        F724   1.357       .  S
C718        C719   1.398       .  A
C718        H723   1.081       .  S
C719        C720   1.406       .  A
C720        F721   1.357       .  S
C725        C726   1.408       .  A
C725        C730   1.389       .  A
C725        H732   1.083       .  S
C726        C727   1.409       .  A
C727        C728   1.401       .  A
C727        F734   1.357       .  S
C728        C729   1.402       .  A
C728        H733   1.082       .  S
C729        C730   1.397       .  A
C730        F731   1.357       .  S
C735        C736   1.399       .  A
C735        C740   1.393       .  A
C735        H742   1.083       .  S
C736        C737   1.405       .  A
C737        C738   1.396       .  A
C737        F744   1.357       .  S
C738        C739   1.401       .  A
C738        H743   1.083       .  S
C739        C740   1.404       .  A
C740        F741   1.358       .  S
C745        C746   1.402       .  A
C745        C750   1.403       .  A
C745        H752   1.081       .  S
C746        C747   1.401       .  A
C747        C748   1.394       .  A
C747        F754   1.358       .  S
C748        C749   1.410       .  A
C748        H753   1.083       .  S
C749        C750   1.412       .  A
C750        F751   1.357       .  S
C755        C756   1.407       .  A
C755        C760   1.398       .  A
C755        H762   1.083       .  S
C756        C757   1.409       .  A
C757        C758   1.392       .  A
C757        F764   1.358       .  S
C758        C759   1.397       .  A
C758        H763   1.084       .  S
C759        C760   1.401       .  A
C760        F761   1.357       .  S
C765        C766   1.405       .  A
C765        C770   1.400       .  A
C765        H772   1.084       .  S
C766        C767   1.410       .  A
C767        C768   1.392       .  A
C767        F774   1.358       .  S
C768        C769   1.396       .  A
C768        H773   1.083       .  S
C769        C770   1.403       .  A
C770        F771   1.357       .  S
C775        H776   1.112       .  S
C775        C781   1.525       .  S
C775        C780   1.526       .  S
C775        C779   1.529       .  S
C777        H778   1.111       .  S
C777        C783   1.534       .  S
C777        C782   1.535       .  S
C777        C784   1.538       .  S
C779        C782   1.375       .  D
C779        C994   1.471       .  S
C780        C783   1.370       .  D
C780       C1027   1.470       .  S
C781        C784   1.371       .  D
C781        C987   1.470       .  S
C782       C1004   1.482       .  S
C783       C1017   1.466       .  S
C784        C977   1.476       .  S
C785        H786   1.111       .  S
C785        C791   1.535       .  S
C785        C790   1.535       .  S
C785        C789   1.532       .  S
C787        H788   1.112       .  S
C787        C793   1.530       .  S
C787        C792   1.530       .  S
C787        C794   1.529       .  S
C789        C792   1.370       .  D
C789        C967   1.471       .  S
C790        C793   1.374       .  D
C790        C944   1.475       .  S
C791        C794   1.373       .  D
C791        C917   1.475       .  S
C792        C954   1.473       .  S
C793        C937   1.478       .  S
C794        C927   1.474       .  S
C795        N796   1.361       .  A
C795        N800   1.365       .  A
C795        C904   1.488       .  S
N796        C797   1.355       .  A
C797        N798   1.350       .  A
C797        C997   1.461       .  S
N798        C799   1.354       .  A
C799        N800   1.361       .  A
C799        C947   1.486       .  S
C801        N802   1.365       .  A
C801        N806   1.363       .  A
C801        C897   1.489       .  S
N802        C803   1.362       .  A
C803        N804   1.355       .  A
C803       C1007   1.490       .  S
N804        C805   1.353       .  A
C805        N806   1.357       .  A
C805        C934   1.470       .  S
C807        N812   1.362       .  A
C807        C887   1.483       .  S
N808        C809   1.356       .  A
C809        N810   1.353       .  A
C809       C1014   1.474       .  S
C811        N812   1.358       .  A
C811        C924   1.465       .  S
C813        N818   1.366   1_545  A
C813        C874   1.494       .  S
N814        C815   1.359       .  A
C815       C1024   1.475       .  S
N816        C817   1.353   1_545  A
C817        N818   1.361       .  A
C817        C914   1.486       .  S
C819        N820   1.364       .  A
C819       N1856   1.364       .  A
C819        C864   1.486       .  S
N820        C821   1.359       .  A
C821       N1854   1.352       .  A
C821        C984   1.479       .  S
N822       C1853   1.352       .  A
N822        C823   1.350   1_655  A
C823        N824   1.358       .  A
C823        C964   1.478       .  S
N824       C1851   1.364   1_455  A
C825       N1858   1.362       .  A
C825        N830   1.362       .  A
C825        C854   1.489       .  S
N826       C1857   1.362       .  A
N826        C827   1.360       .  A
C827        N828   1.355   1_455  A
C827        C957   1.477       .  S
N828       C1861   1.354       .  A
C829       N1860   1.354       .  A
C829        N830   1.357       .  A
C829        C974   1.471       .  S
O831      Cr1881   2.003   1_455  S
O832       Cr849   1.981       .  S
O832        C833   1.261       .  A
C833        C907   1.484       .  S
C833        O834   1.264       .  A
O835       C1868   1.263       .  A
C836        C867   1.486       .  S
C836       O1867   1.263       .  A
C836        O837   1.266   1_655  A
O838        C839   1.263       .  A
C839        C877   1.488       .  S
O840      Cr1623   1.979   1_456  S
O840        C848   1.260       .  A
O841        C842   1.266       .  A
C842        C894   1.489       .  S
C842        O843   1.263       .  A
O843       Cr850   1.988   1_566  S
O844       C1877   1.264       .  A
C845        C857   1.486       .  S
C845       O1876   1.264   1_455  A
C845        O846   1.262       .  A
O846       Cr851   1.987       .  S
O847       Cr851   1.996       .  S
C848        C884   1.482       .  S
Cr849      O1863   2.003       .  S
Cr849      O1614   1.979       .  S
Cr849       O852   1.773   1_565  S
Cr851      O1110   1.776   1_456  S
O852      Cr1109   1.776       .  S
C853        C854   1.406       .  A
C853        C858   1.396       .  A
C853        H860   1.083       .  S
C854       C1887   1.412       .  A
C855       C1886   1.412       .  A
C855        C856   1.402       .  A
C855        F862   1.357       .  S
C856        C857   1.406       .  A
C856        H861   1.083       .  S
C857       C1890   1.409   1_455  A
C858       C1889   1.409       .  A
C858        F859   1.358       .  S
C863        C864   1.408       .  A
C863        C868   1.401       .  A
C863        H870   1.083       .  S
C864       C1897   1.408       .  A
C865       C1896   1.408   1_455  A
C865        C866   1.395       .  A
C865        F872   1.358       .  S
C866        C867   1.407   1_455  A
C866        H871   1.083       .  S
C867       C1900   1.408       .  A
C868       C1899   1.408       .  A
C868        F869   1.357       .  S
C873        C878   1.404       .  A
C873        H880   1.083       .  S
C874        C875   1.410   1_545  A
C875        C876   1.398       .  A
C875        F882   1.357       .  S
C876        H881   1.083       .  S
C877        C878   1.408       .  A
C878        F879   1.358       .  S
C883        C884   1.405   1_545  A
C883        C888   1.393       .  A
C883        H890   1.083       .  S
C885        C886   1.400       .  A
C885        F892   1.357       .  S
C886        H891   1.083       .  S
C887        C888   1.409   1_565  A
C888        F889   1.358       .  S
C893        C894   1.408       .  A
C893        C898   1.399       .  A
C893        H900   1.083       .  S
C894        C895   1.408       .  A
C895        C896   1.401       .  A
C895        F902   1.357       .  S
C896        C897   1.408       .  A
C896        H901   1.083       .  S
C897        C898   1.409       .  A
C898        F899   1.357       .  S
C903        C904   1.406       .  A
C903        C908   1.398       .  A
C903        H910   1.083       .  S
C904        C905   1.412       .  A
C905        C906   1.398       .  A
C905        F912   1.357       .  S
C906        C907   1.404       .  A
C906        H911   1.083       .  S
C907        C908   1.409       .  A
C908        F909   1.358       .  S
C913        C914   1.409       .  A
C913        C918   1.392       .  A
C913        H920   1.083       .  S
C914        C915   1.411       .  A
C915        C916   1.404       .  A
C915        F922   1.357       .  S
C916        C917   1.402       .  A
C916        H921   1.083       .  S
C917        C918   1.398       .  A
C918        F919   1.358       .  S
C923        C924   1.402       .  A
C923        C928   1.393       .  A
C923        H930   1.084       .  S
C924        C925   1.404       .  A
C925        C926   1.399       .  A
C925        F932   1.357       .  S
C926        C927   1.403       .  A
C926        H931   1.083       .  S
C927        C928   1.402       .  A
C928        F929   1.357       .  S
C933        C934   1.402       .  A
C933        C938   1.400       .  A
C933        H940   1.083       .  S
C934        C935   1.406       .  A
C935        C936   1.395       .  A
C935        F942   1.357       .  S
C936        C937   1.399       .  A
C936        H941   1.084       .  S
C937        C938   1.407       .  A
C938        F939   1.358       .  S
C943        C944   1.400       .  A
C943        C948   1.402       .  A
C943        H950   1.083       .  S
C944        C945   1.401       .  A
C945        C946   1.390       .  A
C945        F952   1.358       .  S
C946        C947   1.409       .  A
C946        H951   1.083       .  S
C947        C948   1.412       .  A
C948        F949   1.357       .  S
C953        C954   1.401       .  A
C953        C958   1.399       .  A
C953        H960   1.083       .  S
C954        C955   1.400       .  A
C955        C956   1.396       .  A
C955        F962   1.358       .  S
C956        C957   1.406       .  A
C956        H961   1.083       .  S
C957        C958   1.408       .  A
C958        F959   1.357       .  S
C963        C964   1.406       .  A
C963        C968   1.401       .  A
C963        H970   1.083       .  S
C964        C965   1.411       .  A
C965        C966   1.392       .  A
C965        F972   1.358       .  S
C966        C967   1.396       .  A
C966        H971   1.084       .  S
C967        C968   1.403       .  A
C968        F969   1.357       .  S
C973        C974   1.404       .  A
C973        C978   1.400       .  A
C973        H980   1.083       .  S
C974        C975   1.405       .  A
C975        C976   1.395       .  A
C975        F982   1.357       .  S
C976        C977   1.398       .  A
C976        H981   1.081       .  S
C977        C978   1.406       .  A
C978        F979   1.357       .  S
C983        C984   1.408       .  A
C983        C988   1.389       .  A
C983        H990   1.083       .  S
C984        C985   1.409       .  A
C985        C986   1.401       .  A
C985        F992   1.357       .  S
C986        C987   1.402       .  A
C986        H991   1.082       .  S
C987        C988   1.397       .  A
C988        F989   1.357       .  S
C993        C994   1.399       .  A
C993        C998   1.393       .  A
C993       H1000   1.083       .  S
C994        C995   1.405       .  A
C995        C996   1.396       .  A
C995       F1002   1.357       .  S
C996        C997   1.401       .  A
C996       H1001   1.083       .  S
C997        C998   1.404       .  A
C998        F999   1.358       .  S
C1003      C1004   1.402       .  A
C1003      C1008   1.403       .  A
C1003      H1010   1.081       .  S
C1004      C1005   1.401       .  A
C1005      C1006   1.394       .  A
C1005      F1012   1.358       .  S
C1006      C1007   1.410       .  A
C1006      H1011   1.083       .  S
C1007      C1008   1.412       .  A
C1008      F1009   1.357       .  S
C1013      C1014   1.407       .  A
C1013      C1018   1.398       .  A
C1013      H1020   1.083       .  S
C1014      C1015   1.409       .  A
C1015      C1016   1.392       .  A
C1015      F1022   1.358       .  S
C1016      C1017   1.397       .  A
C1016      H1021   1.084       .  S
C1017      C1018   1.401       .  A
C1018      F1019   1.357       .  S
C1023      C1024   1.405       .  A
C1023      C1028   1.400       .  A
C1023      H1030   1.084       .  S
C1024      C1025   1.410       .  A
C1025      C1026   1.392       .  A
C1025      F1032   1.358       .  S
C1026      C1027   1.396       .  A
C1026      H1031   1.083       .  S
C1027      C1028   1.403       .  A
C1028      F1029   1.357       .  S
C1033      H1034   1.112       .  S
C1033      C1039   1.525       .  S
C1033      C1038   1.526       .  S
C1033      C1037   1.529       .  S
C1035      H1036   1.111       .  S
C1035      C1041   1.534       .  S
C1035      C1040   1.535       .  S
C1035      C1042   1.538       .  S
C1037      C1040   1.375       .  D
C1037      C1252   1.471       .  S
C1038      C1041   1.370       .  D
C1038      C1285   1.471       .  S
C1039      C1042   1.371       .  D
C1039      C1245   1.470       .  S
C1040      C1262   1.482       .  S
C1041      C1275   1.466       .  S
C1042      C1235   1.476       .  S
C1043      H1044   1.111       .  S
C1043      C1049   1.535       .  S
C1043      C1048   1.535       .  S
C1043      C1047   1.532       .  S
C1045      H1046   1.112       .  S
C1045      C1051   1.530       .  S
C1045      C1050   1.530       .  S
C1045      C1052   1.529       .  S
C1047      C1050   1.370       .  D
C1047      C1225   1.471       .  S
C1048      C1051   1.374       .  D
C1048      C1202   1.475       .  S
C1049      C1052   1.373       .  D
C1049      C1175   1.475       .  S
C1050      C1212   1.473       .  S
C1051      C1195   1.478       .  S
C1052      C1185   1.474       .  S
C1053      N1054   1.361       .  A
C1053      N1058   1.365       .  A
C1053      C1162   1.488       .  S
N1054      C1055   1.355       .  A
C1055      N1056   1.350       .  A
C1055      C1255   1.461       .  S
N1056      C1057   1.354       .  A
C1057      N1058   1.361       .  A
C1057      C1205   1.486       .  S
C1059      N1060   1.365       .  A
C1059      N1064   1.363       .  A
C1059      C1155   1.489       .  S
N1060      C1061   1.362       .  A
C1061      N1062   1.355       .  A
C1061      C1265   1.490       .  S
N1062      C1063   1.353       .  A
C1063      N1064   1.357       .  A
C1063      C1192   1.470       .  S
C1065      N1582   1.360       .  A
C1065      N1070   1.362       .  A
C1065      C1145   1.483       .  S
N1066      C1581   1.360   1_545  A
N1066      C1067   1.356       .  A
C1067      N1068   1.353   1_545  A
C1067      C1272   1.474       .  S
N1068      C1585   1.353       .  A
C1069      N1584   1.353       .  A
C1069      N1070   1.358       .  A
C1069      C1182   1.465       .  S
C1071      N1588   1.363       .  A
C1071      N1076   1.366       .  A
C1071      C1132   1.494       .  S
N1072      C1587   1.363       .  A
N1072      C1073   1.359       .  A
C1073      N1590   1.351       .  A
C1073      C1282   1.475       .  S
N1074      C1589   1.351       .  A
N1074      C1075   1.353       .  A
C1075      N1076   1.361       .  A
C1075      C1172   1.486       .  S
C1077      N1078   1.364       .  A
C1077      C1122   1.486       .  S
N1078      C1079   1.359       .  A
C1079      C1242   1.479       .  S
N1080      C1081   1.350       .  A
C1081      N1082   1.358       .  A
C1081      C1222   1.478       .  S
C1083      N1088   1.362   1_455  A
C1083      C1112   1.489       .  S
N1084      C1085   1.360       .  A
C1085      N1086   1.355       .  A
C1085      C1215   1.477       .  S
C1087      N1088   1.357       .  A
C1087      C1232   1.471       .  S
O1089      C1613   1.266       .  A
O1090     Cr1107   1.981       .  S
O1090      C1091   1.261       .  A
C1091      C1165   1.484       .  S
C1091      O1092   1.264       .  A
O1092     Cr1366   2.005       .  S
O1093     Cr1882   1.986       .  S
C1094      C1125   1.486       .  S
C1094      O1095   1.266       .  A
O1095     Cr1367   2.000   1_554  S
O1096     Cr1367   1.989   1_554  S
O1096      C1097   1.263       .  A
C1097      C1135   1.488       .  S
C1097      O1605   1.266   1_545  A
O1098      C1106   1.260       .  A
O1099     Cr1365   2.004       .  S
O1099      C1100   1.266       .  A
C1100      C1152   1.489       .  S
C1100      O1101   1.263       .  A
O1101     Cr1108   1.988       .  S
O1102     Cr1624   2.000       .  S
C1103      C1115   1.486       .  S
C1103      O1104   1.262       .  A
O1104     Cr1109   1.987       .  S
O1105     Cr1109   1.996       .  S
O1105      C1622   1.264   1_545  A
C1106      C1142   1.482       .  S
C1106      O1621   1.264       .  A
Cr1107     O1357   2.004   1_554  S
Cr1107     O1110   1.773       .  S
Cr1108     O1350   2.005       .  S
Cr1108     O1867   1.985       .  S
Cr1108     O1618   2.000       .  S
Cr1108     O1368   1.775       .  S
Cr1109     O1353   2.000       .  S
Cr1109     O1354   1.989       .  S
O1110     Cr1366   1.775       .  S
C1111      C1112   1.406   1_655  A
C1111      C1116   1.396       .  A
C1111      H1118   1.083       .  S
C1113      C1114   1.402       .  A
C1113      F1120   1.357       .  S
C1114      C1115   1.406       .  A
C1114      H1119   1.083       .  S
C1116      F1117   1.358       .  S
C1121      C1122   1.408       .  A
C1121      C1126   1.401       .  A
C1121      H1128   1.083       .  S
C1123      C1124   1.395       .  A
C1123      F1130   1.358       .  S
C1124      C1125   1.407       .  A
C1124      H1129   1.083       .  S
C1126      F1127   1.357       .  S
C1131      C1648   1.411       .  A
C1131      C1136   1.404       .  A
C1131      H1138   1.083       .  S
C1132      C1647   1.411       .  A
C1132      C1133   1.410       .  A
C1133      C1134   1.398       .  A
C1133      F1140   1.357       .  S
C1134      C1651   1.405       .  A
C1134      H1139   1.083       .  S
C1135      C1650   1.405   1_545  A
C1135      C1136   1.408       .  A
C1136      F1137   1.358       .  S
C1141      C1142   1.405       .  A
C1141      C1146   1.393       .  A
C1141      H1148   1.083       .  S
C1142      C1659   1.409       .  A
C1143      C1658   1.409       .  A
C1143      C1144   1.400       .  A
C1143      F1150   1.357       .  S
C1144      C1661   1.407       .  A
C1144      H1149   1.083       .  S
C1145      C1660   1.407       .  A
C1145      C1146   1.409       .  A
C1146      F1147   1.358       .  S
C1151      C1152   1.408       .  A
C1151      C1156   1.399       .  A
C1151      H1158   1.083       .  S
C1152      C1153   1.408       .  A
C1153      C1154   1.401       .  A
C1153      F1160   1.357       .  S
C1154      C1155   1.408       .  A
C1154      H1159   1.083       .  S
C1155      C1156   1.409       .  A
C1156      F1157   1.357       .  S
C1161      C1162   1.406       .  A
C1161      C1166   1.398       .  A
C1161      H1168   1.083       .  S
C1162      C1163   1.412       .  A
C1163      C1164   1.398       .  A
C1163      F1170   1.357       .  S
C1164      C1165   1.404       .  A
C1164      H1169   1.083       .  S
C1165      C1166   1.409       .  A
C1166      F1167   1.358       .  S
C1171      C1172   1.409       .  A
C1171      C1176   1.392       .  A
C1171      H1178   1.083       .  S
C1172      C1173   1.411       .  A
C1173      C1174   1.404       .  A
C1173      F1180   1.357       .  S
C1174      C1175   1.402       .  A
C1174      H1179   1.083       .  S
C1175      C1176   1.398       .  A
C1176      F1177   1.358       .  S
C1181      C1182   1.402       .  A
C1181      C1186   1.393       .  A
C1181      H1188   1.084       .  S
C1182      C1183   1.404       .  A
C1183      C1184   1.399       .  A
C1183      F1190   1.357       .  S
C1184      C1185   1.403       .  A
C1184      H1189   1.083       .  S
C1185      C1186   1.402       .  A
C1186      F1187   1.357       .  S
C1191      C1192   1.402       .  A
C1191      C1196   1.400       .  A
C1191      H1198   1.083       .  S
C1192      C1193   1.406       .  A
C1193      C1194   1.395       .  A
C1193      F1200   1.357       .  S
C1194      C1195   1.399       .  A
C1194      H1199   1.084       .  S
C1195      C1196   1.407       .  A
C1196      F1197   1.358       .  S
C1201      C1202   1.400       .  A
C1201      C1206   1.402       .  A
C1201      H1208   1.083       .  S
C1202      C1203   1.401       .  A
C1203      C1204   1.390       .  A
C1203      F1210   1.358       .  S
C1204      C1205   1.409       .  A
C1204      H1209   1.083       .  S
C1205      C1206   1.412       .  A
C1206      F1207   1.357       .  S
C1211      C1212   1.401       .  A
C1211      C1216   1.399       .  A
C1211      H1218   1.083       .  S
C1212      C1213   1.400       .  A
C1213      C1214   1.396       .  A
C1213      F1220   1.358       .  S
C1214      C1215   1.406       .  A
C1214      H1219   1.083       .  S
C1215      C1216   1.408       .  A
C1216      F1217   1.357       .  S
C1221      C1222   1.406       .  A
C1221      C1226   1.401       .  A
C1221      H1228   1.083       .  S
C1222      C1223   1.411       .  A
C1223      C1224   1.392       .  A
C1223      F1230   1.358       .  S
C1224      C1225   1.396       .  A
C1224      H1229   1.084       .  S
C1225      C1226   1.403       .  A
C1226      F1227   1.357       .  S
C1231      C1232   1.404       .  A
C1231      C1236   1.400       .  A
C1231      H1238   1.083       .  S
C1232      C1233   1.405       .  A
C1233      C1234   1.395       .  A
C1233      F1240   1.357       .  S
C1234      C1235   1.398       .  A
C1234      H1239   1.081       .  S
C1235      C1236   1.406       .  A
C1236      F1237   1.357       .  S
C1241      C1242   1.408       .  A
C1241      C1246   1.389       .  A
C1241      H1248   1.083       .  S
C1242      C1243   1.409       .  A
C1243      C1244   1.401       .  A
C1243      F1250   1.357       .  S
C1244      C1245   1.402       .  A
C1244      H1249   1.082       .  S
C1245      C1246   1.397       .  A
C1246      F1247   1.357       .  S
C1251      C1252   1.399       .  A
C1251      C1256   1.393       .  A
C1251      H1258   1.083       .  S
C1252      C1253   1.405       .  A
C1253      C1254   1.396       .  A
C1253      F1260   1.357       .  S
C1254      C1255   1.401       .  A
C1254      H1259   1.083       .  S
C1255      C1256   1.404       .  A
C1256      F1257   1.358       .  S
C1261      C1262   1.402       .  A
C1261      C1266   1.403       .  A
C1261      H1268   1.081       .  S
C1262      C1263   1.401       .  A
C1263      C1264   1.394       .  A
C1263      F1270   1.358       .  S
C1264      C1265   1.410       .  A
C1264      H1269   1.083       .  S
C1265      C1266   1.412       .  A
C1266      F1267   1.357       .  S
C1271      C1272   1.407       .  A
C1271      C1276   1.398       .  A
C1271      H1278   1.083       .  S
C1272      C1273   1.409       .  A
C1273      C1274   1.392       .  A
C1273      F1280   1.358       .  S
C1274      C1275   1.397       .  A
C1274      H1279   1.084       .  S
C1275      C1276   1.401       .  A
C1276      F1277   1.357       .  S
C1281      C1282   1.405       .  A
C1281      C1286   1.400       .  A
C1281      H1288   1.084       .  S
C1282      C1283   1.410       .  A
C1283      C1284   1.392       .  A
C1283      F1290   1.358       .  S
C1284      C1285   1.396       .  A
C1284      H1289   1.083       .  S
C1285      C1286   1.403       .  A
C1286      F1287   1.357       .  S
C1291      H1292   1.112       .  S
C1291      C1297   1.525       .  S
C1291      C1296   1.526       .  S
C1291      C1295   1.529       .  S
C1293      H1294   1.111       .  S
C1293      C1299   1.534       .  S
C1293      C1298   1.535       .  S
C1293      C1300   1.538       .  S
C1295      C1298   1.375       .  D
C1295      C1510   1.471       .  S
C1296      C1299   1.370       .  D
C1296      C1543   1.471       .  S
C1297      C1300   1.371       .  D
C1297      C1503   1.470       .  S
C1298      C1520   1.482       .  S
C1299      C1533   1.466       .  S
C1300      C1493   1.476       .  S
C1301      H1302   1.111       .  S
C1301      C1307   1.535       .  S
C1301      C1306   1.535       .  S
C1301      C1305   1.532       .  S
C1303      H1304   1.112       .  S
C1303      C1309   1.530       .  S
C1303      C1308   1.530       .  S
C1303      C1310   1.529       .  S
C1305      C1308   1.370       .  D
C1305      C1483   1.471       .  S
C1306      C1309   1.374       .  D
C1306      C1460   1.475       .  S
C1307      C1310   1.373       .  D
C1307      C1433   1.475       .  S
C1308      C1470   1.473       .  S
C1309      C1453   1.478       .  S
C1310      C1443   1.474       .  S
C1311      N1312   1.361       .  A
C1311      N1316   1.365       .  A
C1311      C1420   1.488       .  S
N1312      C1313   1.355       .  A
C1313      N1314   1.350       .  A
C1313      C1513   1.461       .  S
N1314      C1315   1.354       .  A
C1315      N1316   1.361       .  A
C1315      C1463   1.486       .  S
C1317      N1318   1.365       .  A
C1317      N1322   1.363       .  A
C1317      C1413   1.489       .  S
N1318      C1319   1.362       .  A
C1319      N1320   1.355       .  A
C1319      C1523   1.490       .  S
N1320      C1321   1.353       .  A
C1321      N1322   1.357       .  A
C1321      C1450   1.470       .  S
C1323      N1840   1.360       .  A
C1323      N1328   1.362       .  A
C1323      C1403   1.483       .  S
N1324      C1839   1.360   1_545  A
N1324      C1325   1.356       .  A
C1325      N1326   1.353   1_545  A
C1325      C1530   1.474       .  S
N1326      C1843   1.353       .  A
C1327      N1842   1.353       .  A
C1327      N1328   1.358       .  A
C1327      C1440   1.465       .  S
C1329      N1846   1.363       .  A
C1329      N1334   1.366       .  A
C1329      C1390   1.494       .  S
N1330      C1845   1.363       .  A
N1330      C1331   1.359       .  A
C1331      N1848   1.351       .  A
C1331      C1540   1.475       .  S
N1332      C1847   1.351       .  A
N1332      C1333   1.353       .  A
C1333      N1334   1.361       .  A
C1333      C1430   1.486       .  S
C1335      N1336   1.364       .  A
C1335      C1380   1.486       .  S
N1336      C1337   1.359       .  A
C1337      C1500   1.479       .  S
N1338      C1339   1.350       .  A
C1339      N1340   1.358       .  A
C1339      C1480   1.478       .  S
C1341      N1346   1.362   1_455  A
C1341      C1370   1.489       .  S
N1342      C1343   1.360       .  A
C1343      N1344   1.355       .  A
C1343      C1473   1.477       .  S
C1345      N1346   1.357       .  A
C1345      C1490   1.471       .  S
O1347      C1871   1.266       .  A
O1348     Cr1365   1.981       .  S
O1348      C1349   1.261       .  A
C1349      C1423   1.484       .  S
C1349      O1350   1.264       .  A
O1351     Cr1624   1.985       .  S
C1352      C1383   1.486       .  S
C1352      O1353   1.266       .  A
O1354      C1355   1.263       .  A
C1355      C1393   1.488       .  S
C1355      O1863   1.266   1_545  A
O1356      C1364   1.260       .  A
O1357      C1358   1.266       .  A
C1358      C1410   1.489       .  S
C1358      O1359   1.263       .  A
O1359     Cr1366   1.988   1_556  S
O1360     Cr1882   2.000   1_556  S
C1361      C1373   1.486       .  S
C1361      O1362   1.262       .  A
O1362     Cr1367   1.987       .  S
O1363     Cr1367   1.996       .  S
O1363      C1880   1.264   1_545  A
C1364      C1400   1.482       .  S
C1364      O1879   1.264       .  A
Cr1365     O1368   1.773       .  S
Cr1366     O1609   1.985       .  S
Cr1366     O1876   2.000   1_554  S
C1369      C1370   1.406   1_655  A
C1369      C1374   1.396       .  A
C1369      H1376   1.083       .  S
C1371      C1372   1.402       .  A
C1371      F1378   1.357       .  S
C1372      C1373   1.406       .  A
C1372      H1377   1.083       .  S
C1374      F1375   1.358       .  S
C1379      C1380   1.408       .  A
C1379      C1384   1.401       .  A
C1379      H1386   1.083       .  S
C1381      C1382   1.395       .  A
C1381      F1388   1.358       .  S
C1382      C1383   1.407       .  A
C1382      H1387   1.083       .  S
C1384      F1385   1.357       .  S
C1389      C1906   1.411       .  A
C1389      C1394   1.404       .  A
C1389      H1396   1.083       .  S
C1390      C1905   1.411       .  A
C1390      C1391   1.410       .  A
C1391      C1392   1.398       .  A
C1391      F1398   1.357       .  S
C1392      C1909   1.405       .  A
C1392      H1397   1.083       .  S
C1393      C1908   1.405   1_545  A
C1393      C1394   1.408       .  A
C1394      F1395   1.358       .  S
C1399      C1400   1.405       .  A
C1399      C1404   1.393       .  A
C1399      H1406   1.083       .  S
C1400      C1917   1.409       .  A
C1401      C1916   1.409       .  A
C1401      C1402   1.400       .  A
C1401      F1408   1.357       .  S
C1402      C1919   1.407       .  A
C1402      H1407   1.083       .  S
C1403      C1918   1.407       .  A
C1403      C1404   1.409       .  A
C1404      F1405   1.358       .  S
C1409      C1410   1.408       .  A
C1409      C1414   1.399       .  A
C1409      H1416   1.083       .  S
C1410      C1411   1.408       .  A
C1411      C1412   1.401       .  A
C1411      F1418   1.357       .  S
C1412      C1413   1.408       .  A
C1412      H1417   1.083       .  S
C1413      C1414   1.409       .  A
C1414      F1415   1.357       .  S
C1419      C1420   1.406       .  A
C1419      C1424   1.398       .  A
C1419      H1426   1.083       .  S
C1420      C1421   1.412       .  A
C1421      C1422   1.398       .  A
C1421      F1428   1.357       .  S
C1422      C1423   1.404       .  A
C1422      H1427   1.083       .  S
C1423      C1424   1.409       .  A
C1424      F1425   1.358       .  S
C1429      C1430   1.409       .  A
C1429      C1434   1.392       .  A
C1429      H1436   1.083       .  S
C1430      C1431   1.411       .  A
C1431      C1432   1.404       .  A
C1431      F1438   1.357       .  S
C1432      C1433   1.402       .  A
C1432      H1437   1.083       .  S
C1433      C1434   1.398       .  A
C1434      F1435   1.358       .  S
C1439      C1440   1.402       .  A
C1439      C1444   1.393       .  A
C1439      H1446   1.084       .  S
C1440      C1441   1.404       .  A
C1441      C1442   1.399       .  A
C1441      F1448   1.357       .  S
C1442      C1443   1.403       .  A
C1442      H1447   1.083       .  S
C1443      C1444   1.402       .  A
C1444      F1445   1.357       .  S
C1449      C1450   1.402       .  A
C1449      C1454   1.400       .  A
C1449      H1456   1.083       .  S
C1450      C1451   1.406       .  A
C1451      C1452   1.395       .  A
C1451      F1458   1.357       .  S
C1452      C1453   1.399       .  A
C1452      H1457   1.084       .  S
C1453      C1454   1.407       .  A
C1454      F1455   1.358       .  S
C1459      C1460   1.400       .  A
C1459      C1464   1.402       .  A
C1459      H1466   1.083       .  S
C1460      C1461   1.401       .  A
C1461      C1462   1.390       .  A
C1461      F1468   1.358       .  S
C1462      C1463   1.409       .  A
C1462      H1467   1.083       .  S
C1463      C1464   1.412       .  A
C1464      F1465   1.357       .  S
C1469      C1470   1.401       .  A
C1469      C1474   1.399       .  A
C1469      H1476   1.083       .  S
C1470      C1471   1.400       .  A
C1471      C1472   1.396       .  A
C1471      F1478   1.358       .  S
C1472      C1473   1.406       .  A
C1472      H1477   1.083       .  S
C1473      C1474   1.408       .  A
C1474      F1475   1.357       .  S
C1479      C1480   1.406       .  A
C1479      C1484   1.401       .  A
C1479      H1486   1.083       .  S
C1480      C1481   1.411       .  A
C1481      C1482   1.392       .  A
C1481      F1488   1.358       .  S
C1482      C1483   1.396       .  A
C1482      H1487   1.084       .  S
C1483      C1484   1.403       .  A
C1484      F1485   1.357       .  S
C1489      C1490   1.404       .  A
C1489      C1494   1.400       .  A
C1489      H1496   1.083       .  S
C1490      C1491   1.405       .  A
C1491      C1492   1.395       .  A
C1491      F1498   1.357       .  S
C1492      C1493   1.398       .  A
C1492      H1497   1.081       .  S
C1493      C1494   1.406       .  A
C1494      F1495   1.357       .  S
C1499      C1500   1.408       .  A
C1499      C1504   1.389       .  A
C1499      H1506   1.083       .  S
C1500      C1501   1.409       .  A
C1501      C1502   1.401       .  A
C1501      F1508   1.357       .  S
C1502      C1503   1.402       .  A
C1502      H1507   1.082       .  S
C1503      C1504   1.397       .  A
C1504      F1505   1.357       .  S
C1509      C1510   1.399       .  A
C1509      C1514   1.393       .  A
C1509      H1516   1.083       .  S
C1510      C1511   1.405       .  A
C1511      C1512   1.396       .  A
C1511      F1518   1.357       .  S
C1512      C1513   1.401       .  A
C1512      H1517   1.083       .  S
C1513      C1514   1.404       .  A
C1514      F1515   1.358       .  S
C1519      C1520   1.402       .  A
C1519      C1524   1.403       .  A
C1519      H1526   1.081       .  S
C1520      C1521   1.401       .  A
C1521      C1522   1.394       .  A
C1521      F1528   1.358       .  S
C1522      C1523   1.410       .  A
C1522      H1527   1.083       .  S
C1523      C1524   1.412       .  A
C1524      F1525   1.357       .  S
C1529      C1530   1.407       .  A
C1529      C1534   1.398       .  A
C1529      H1536   1.083       .  S
C1530      C1531   1.409       .  A
C1531      C1532   1.392       .  A
C1531      F1538   1.358       .  S
C1532      C1533   1.397       .  A
C1532      H1537   1.084       .  S
C1533      C1534   1.401       .  A
C1534      F1535   1.357       .  S
C1539      C1540   1.405       .  A
C1539      C1544   1.400       .  A
C1539      H1546   1.084       .  S
C1540      C1541   1.410       .  A
C1541      C1542   1.392       .  A
C1541      F1548   1.358       .  S
C1542      C1543   1.396       .  A
C1542      H1547   1.083       .  S
C1543      C1544   1.403       .  A
C1544      F1545   1.357       .  S
C1549      H1550   1.112       .  S
C1549      C1555   1.525       .  S
C1549      C1554   1.526       .  S
C1549      C1553   1.529       .  S
C1551      H1552   1.111       .  S
C1551      C1557   1.534       .  S
C1551      C1556   1.535       .  S
C1551      C1558   1.538       .  S
C1553      C1556   1.375       .  D
C1553      C1768   1.471       .  S
C1554      C1557   1.370       .  D
C1554      C1801   1.471       .  S
C1555      C1558   1.371       .  D
C1555      C1761   1.470       .  S
C1556      C1778   1.482       .  S
C1557      C1791   1.466       .  S
C1558      C1751   1.476       .  S
C1559      H1560   1.111       .  S
C1559      C1565   1.535       .  S
C1559      C1564   1.535       .  S
C1559      C1563   1.532       .  S
C1561      H1562   1.112       .  S
C1561      C1567   1.530       .  S
C1561      C1566   1.530       .  S
C1561      C1568   1.529       .  S
C1563      C1566   1.370       .  D
C1563      C1741   1.471       .  S
C1564      C1567   1.374       .  D
C1564      C1718   1.475       .  S
C1565      C1568   1.373       .  D
C1565      C1691   1.475       .  S
C1566      C1728   1.473       .  S
C1567      C1711   1.478       .  S
C1568      C1701   1.474       .  S
C1569      N1570   1.361       .  A
C1569      N1574   1.365       .  A
C1569      C1678   1.488       .  S
N1570      C1571   1.355       .  A
C1571      N1572   1.350       .  A
C1571      C1771   1.461       .  S
N1572      C1573   1.354       .  A
C1573      N1574   1.361       .  A
C1573      C1721   1.486       .  S
C1575      N1576   1.365       .  A
C1575      N1580   1.363       .  A
C1575      C1671   1.489       .  S
N1576      C1577   1.362       .  A
C1577      N1578   1.355       .  A
C1577      C1781   1.490       .  S
N1578      C1579   1.353       .  A
C1579      N1580   1.357       .  A
C1579      C1708   1.470       .  S
C1581      N1586   1.362       .  A
C1581      C1661   1.483       .  S
N1582      C1583   1.356       .  A
C1583      N1584   1.353       .  A
C1583      C1788   1.474       .  S
C1585      N1586   1.358       .  A
C1585      C1698   1.465       .  S
C1587      N1592   1.366   1_545  A
C1587      C1648   1.494       .  S
N1588      C1589   1.359       .  A
C1589      C1798   1.475       .  S
N1590      C1591   1.353   1_545  A
C1591      N1592   1.361       .  A
C1591      C1688   1.486       .  S
C1593      N1594   1.364       .  A
C1593      C1638   1.486       .  S
N1594      C1595   1.359       .  A
C1595      C1758   1.479       .  S
N1596      C1597   1.350       .  A
C1597      N1598   1.358       .  A
C1597      C1738   1.478       .  S
C1599      N1604   1.362   1_455  A
C1599      C1628   1.489       .  S
N1600      C1601   1.360       .  A
C1601      N1602   1.355       .  A
C1601      C1731   1.477       .  S
C1603      N1604   1.357       .  A
C1603      C1748   1.471       .  S
O1606     Cr1623   1.981       .  S
O1606      C1607   1.261       .  A
C1607      C1681   1.484       .  S
C1607      O1608   1.264       .  A
O1608     Cr1882   2.005   1_565  S
C1610      C1641   1.486       .  S
C1610      O1611   1.266       .  A
O1611     Cr1883   2.000   1_554  S
O1612     Cr1883   1.989   1_554  S
O1612      C1613   1.263       .  A
C1613      C1651   1.488       .  S
O1614      C1622   1.260       .  A
O1615     Cr1881   2.004       .  S
O1615      C1616   1.266       .  A
C1616      C1668   1.489       .  S
C1616      O1617   1.263       .  A
O1617     Cr1624   1.988   1_565  S
C1619      C1631   1.486       .  S
C1619      O1620   1.262       .  A
O1620     Cr1625   1.987       .  S
O1621     Cr1625   1.996       .  S
C1622      C1658   1.482       .  S
Cr1623     O1873   2.004   1_554  S
Cr1623     O1626   1.773   1_565  S
Cr1624     O1866   2.005   1_545  S
Cr1624     O1884   1.775       .  S
Cr1625     O1869   2.000       .  S
Cr1625     O1870   1.989       .  S
O1626     Cr1882   1.775       .  S
C1627      C1628   1.406   1_655  A
C1627      C1632   1.396       .  A
C1627      H1634   1.083       .  S
C1629      C1630   1.402       .  A
C1629      F1636   1.357       .  S
C1630      C1631   1.406       .  A
C1630      H1635   1.083       .  S
C1632      F1633   1.358       .  S
C1637      C1638   1.408       .  A
C1637      C1642   1.401       .  A
C1637      H1644   1.083       .  S
C1639      C1640   1.395       .  A
C1639      F1646   1.358       .  S
C1640      C1641   1.407       .  A
C1640      H1645   1.083       .  S
C1642      F1643   1.357       .  S
C1647      C1652   1.404       .  A
C1647      H1654   1.083       .  S
C1648      C1649   1.410   1_545  A
C1649      C1650   1.398       .  A
C1649      F1656   1.357       .  S
C1650      H1655   1.083       .  S
C1651      C1652   1.408       .  A
C1652      F1653   1.358       .  S
C1657      C1658   1.405   1_545  A
C1657      C1662   1.393       .  A
C1657      H1664   1.083       .  S
C1659      C1660   1.400       .  A
C1659      F1666   1.357       .  S
C1660      H1665   1.083       .  S
C1661      C1662   1.409   1_565  A
C1662      F1663   1.358       .  S
C1667      C1668   1.408       .  A
C1667      C1672   1.399       .  A
C1667      H1674   1.083       .  S
C1668      C1669   1.408       .  A
C1669      C1670   1.401       .  A
C1669      F1676   1.357       .  S
C1670      C1671   1.408       .  A
C1670      H1675   1.083       .  S
C1671      C1672   1.409       .  A
C1672      F1673   1.357       .  S
C1677      C1678   1.406       .  A
C1677      C1682   1.398       .  A
C1677      H1684   1.083       .  S
C1678      C1679   1.412       .  A
C1679      C1680   1.398       .  A
C1679      F1686   1.357       .  S
C1680      C1681   1.404       .  A
C1680      H1685   1.083       .  S
C1681      C1682   1.409       .  A
C1682      F1683   1.358       .  S
C1687      C1688   1.409       .  A
C1687      C1692   1.392       .  A
C1687      H1694   1.083       .  S
C1688      C1689   1.411       .  A
C1689      C1690   1.404       .  A
C1689      F1696   1.357       .  S
C1690      C1691   1.402       .  A
C1690      H1695   1.083       .  S
C1691      C1692   1.398       .  A
C1692      F1693   1.358       .  S
C1697      C1698   1.402       .  A
C1697      C1702   1.393       .  A
C1697      H1704   1.084       .  S
C1698      C1699   1.404       .  A
C1699      C1700   1.399       .  A
C1699      F1706   1.357       .  S
C1700      C1701   1.403       .  A
C1700      H1705   1.083       .  S
C1701      C1702   1.402       .  A
C1702      F1703   1.357       .  S
C1707      C1708   1.402       .  A
C1707      C1712   1.400       .  A
C1707      H1714   1.083       .  S
C1708      C1709   1.406       .  A
C1709      C1710   1.395       .  A
C1709      F1716   1.357       .  S
C1710      C1711   1.399       .  A
C1710      H1715   1.084       .  S
C1711      C1712   1.407       .  A
C1712      F1713   1.358       .  S
C1717      C1718   1.400       .  A
C1717      C1722   1.402       .  A
C1717      H1724   1.083       .  S
C1718      C1719   1.401       .  A
C1719      C1720   1.390       .  A
C1719      F1726   1.358       .  S
C1720      C1721   1.409       .  A
C1720      H1725   1.083       .  S
C1721      C1722   1.412       .  A
C1722      F1723   1.357       .  S
C1727      C1728   1.401       .  A
C1727      C1732   1.399       .  A
C1727      H1734   1.083       .  S
C1728      C1729   1.400       .  A
C1729      C1730   1.396       .  A
C1729      F1736   1.358       .  S
C1730      C1731   1.406       .  A
C1730      H1735   1.083       .  S
C1731      C1732   1.408       .  A
C1732      F1733   1.357       .  S
C1737      C1738   1.406       .  A
C1737      C1742   1.401       .  A
C1737      H1744   1.083       .  S
C1738      C1739   1.411       .  A
C1739      C1740   1.392       .  A
C1739      F1746   1.358       .  S
C1740      C1741   1.396       .  A
C1740      H1745   1.084       .  S
C1741      C1742   1.403       .  A
C1742      F1743   1.357       .  S
C1747      C1748   1.404       .  A
C1747      C1752   1.400       .  A
C1747      H1754   1.083       .  S
C1748      C1749   1.405       .  A
C1749      C1750   1.395       .  A
C1749      F1756   1.357       .  S
C1750      C1751   1.398       .  A
C1750      H1755   1.081       .  S
C1751      C1752   1.406       .  A
C1752      F1753   1.357       .  S
C1757      C1758   1.408       .  A
C1757      C1762   1.389       .  A
C1757      H1764   1.083       .  S
C1758      C1759   1.409       .  A
C1759      C1760   1.401       .  A
C1759      F1766   1.357       .  S
C1760      C1761   1.402       .  A
C1760      H1765   1.082       .  S
C1761      C1762   1.397       .  A
C1762      F1763   1.357       .  S
C1767      C1768   1.399       .  A
C1767      C1772   1.393       .  A
C1767      H1774   1.083       .  S
C1768      C1769   1.405       .  A
C1769      C1770   1.396       .  A
C1769      F1776   1.357       .  S
C1770      C1771   1.401       .  A
C1770      H1775   1.083       .  S
C1771      C1772   1.404       .  A
C1772      F1773   1.358       .  S
C1777      C1778   1.402       .  A
C1777      C1782   1.403       .  A
C1777      H1784   1.081       .  S
C1778      C1779   1.401       .  A
C1779      C1780   1.394       .  A
C1779      F1786   1.358       .  S
C1780      C1781   1.410       .  A
C1780      H1785   1.083       .  S
C1781      C1782   1.412       .  A
C1782      F1783   1.357       .  S
C1787      C1788   1.407       .  A
C1787      C1792   1.398       .  A
C1787      H1794   1.083       .  S
C1788      C1789   1.409       .  A
C1789      C1790   1.392       .  A
C1789      F1796   1.358       .  S
C1790      C1791   1.397       .  A
C1790      H1795   1.084       .  S
C1791      C1792   1.401       .  A
C1792      F1793   1.357       .  S
C1797      C1798   1.405       .  A
C1797      C1802   1.400       .  A
C1797      H1804   1.084       .  S
C1798      C1799   1.410       .  A
C1799      C1800   1.392       .  A
C1799      F1806   1.358       .  S
C1800      C1801   1.396       .  A
C1800      H1805   1.083       .  S
C1801      C1802   1.403       .  A
C1802      F1803   1.357       .  S
C1807      H1808   1.112       .  S
C1807      C1813   1.525       .  S
C1807      C1812   1.526       .  S
C1807      C1811   1.529       .  S
C1809      H1810   1.111       .  S
C1809      C1815   1.534       .  S
C1809      C1814   1.535       .  S
C1809      C1816   1.538       .  S
C1811      C1814   1.375       .  D
C1811      C2026   1.471       .  S
C1812      C1815   1.370       .  D
C1812      C2059   1.470       .  S
C1813      C1816   1.371       .  D
C1813      C2019   1.470       .  S
C1814      C2036   1.482       .  S
C1815      C2049   1.466       .  S
C1816      C2009   1.476       .  S
C1817      H1818   1.111       .  S
C1817      C1823   1.535       .  S
C1817      C1822   1.535       .  S
C1817      C1821   1.532       .  S
C1819      H1820   1.112       .  S
C1819      C1825   1.530       .  S
C1819      C1824   1.530       .  S
C1819      C1826   1.529       .  S
C1821      C1824   1.370       .  D
C1821      C1999   1.471       .  S
C1822      C1825   1.374       .  D
C1822      C1976   1.475       .  S
C1823      C1826   1.373       .  D
C1823      C1949   1.475       .  S
C1824      C1986   1.473       .  S
C1825      C1969   1.478       .  S
C1826      C1959   1.474       .  S
C1827      N1828   1.361       .  A
C1827      N1832   1.365       .  A
C1827      C1936   1.488       .  S
N1828      C1829   1.355       .  A
C1829      N1830   1.350       .  A
C1829      C2029   1.461       .  S
N1830      C1831   1.354       .  A
C1831      N1832   1.361       .  A
C1831      C1979   1.486       .  S
C1833      N1834   1.365       .  A
C1833      N1838   1.363       .  A
C1833      C1929   1.489       .  S
N1834      C1835   1.362       .  A
C1835      N1836   1.355       .  A
C1835      C2039   1.490       .  S
N1836      C1837   1.353       .  A
C1837      N1838   1.357       .  A
C1837      C1966   1.470       .  S
C1839      N1844   1.362       .  A
C1839      C1919   1.483       .  S
N1840      C1841   1.356       .  A
C1841      N1842   1.353       .  A
C1841      C2046   1.474       .  S
C1843      N1844   1.358       .  A
C1843      C1956   1.465       .  S
C1845      N1850   1.366   1_545  A
C1845      C1906   1.494       .  S
N1846      C1847   1.359       .  A
C1847      C2056   1.475       .  S
N1848      C1849   1.353   1_545  A
C1849      N1850   1.361       .  A
C1849      C1946   1.486       .  S
C1851      N1852   1.364       .  A
C1851      C1896   1.486       .  S
N1852      C1853   1.359       .  A
C1853      C2016   1.479       .  S
N1854      C1855   1.350       .  A
C1855      N1856   1.358       .  A
C1855      C1996   1.478       .  S
C1857      N1862   1.362   1_455  A
C1857      C1886   1.489       .  S
N1858      C1859   1.360       .  A
C1859      N1860   1.355       .  A
C1859      C1989   1.477       .  S
C1861      N1862   1.357       .  A
C1861      C2006   1.471       .  S
O1864     Cr1881   1.981       .  S
O1864      C1865   1.261       .  A
C1865      C1939   1.484       .  S
C1865      O1866   1.264       .  A
C1868      C1899   1.486       .  S
C1868      O1869   1.266       .  A
O1870      C1871   1.263       .  A
C1871      C1909   1.488       .  S
O1872      C1880   1.260       .  A
O1873      C1874   1.266       .  A
C1874      C1926   1.489       .  S
C1874      O1875   1.263       .  A
O1875     Cr1882   1.988   1_566  S
C1877      C1889   1.486       .  S
C1877      O1878   1.262       .  A
O1878     Cr1883   1.987       .  S
O1879     Cr1883   1.996       .  S
C1880      C1916   1.482       .  S
Cr1881     O1884   1.773   1_565  S
C1885      C1886   1.406   1_655  A
C1885      C1890   1.396       .  A
C1885      H1892   1.083       .  S
C1887      C1888   1.402       .  A
C1887      F1894   1.357       .  S
C1888      C1889   1.406       .  A
C1888      H1893   1.083       .  S
C1890      F1891   1.358       .  S
C1895      C1896   1.408       .  A
C1895      C1900   1.401       .  A
C1895      H1902   1.083       .  S
C1897      C1898   1.395       .  A
C1897      F1904   1.358       .  S
C1898      C1899   1.407       .  A
C1898      H1903   1.083       .  S
C1900      F1901   1.357       .  S
C1905      C1910   1.404       .  A
C1905      H1912   1.083       .  S
C1906      C1907   1.410   1_545  A
C1907      C1908   1.398       .  A
C1907      F1914   1.357       .  S
C1908      H1913   1.083       .  S
C1909      C1910   1.408       .  A
C1910      F1911   1.358       .  S
C1915      C1916   1.405   1_545  A
C1915      C1920   1.393       .  A
C1915      H1922   1.083       .  S
C1917      C1918   1.400       .  A
C1917      F1924   1.357       .  S
C1918      H1923   1.083       .  S
C1919      C1920   1.409   1_565  A
C1920      F1921   1.358       .  S
C1925      C1926   1.408       .  A
C1925      C1930   1.399       .  A
C1925      H1932   1.083       .  S
C1926      C1927   1.408       .  A
C1927      C1928   1.401       .  A
C1927      F1934   1.357       .  S
C1928      C1929   1.408       .  A
C1928      H1933   1.083       .  S
C1929      C1930   1.409       .  A
C1930      F1931   1.357       .  S
C1935      C1936   1.406       .  A
C1935      C1940   1.398       .  A
C1935      H1942   1.083       .  S
C1936      C1937   1.412       .  A
C1937      C1938   1.398       .  A
C1937      F1944   1.357       .  S
C1938      C1939   1.404       .  A
C1938      H1943   1.083       .  S
C1939      C1940   1.409       .  A
C1940      F1941   1.358       .  S
C1945      C1946   1.409       .  A
C1945      C1950   1.392       .  A
C1945      H1952   1.083       .  S
C1946      C1947   1.411       .  A
C1947      C1948   1.404       .  A
C1947      F1954   1.357       .  S
C1948      C1949   1.402       .  A
C1948      H1953   1.083       .  S
C1949      C1950   1.398       .  A
C1950      F1951   1.358       .  S
C1955      C1956   1.402       .  A
C1955      C1960   1.393       .  A
C1955      H1962   1.084       .  S
C1956      C1957   1.404       .  A
C1957      C1958   1.399       .  A
C1957      F1964   1.357       .  S
C1958      C1959   1.403       .  A
C1958      H1963   1.083       .  S
C1959      C1960   1.402       .  A
C1960      F1961   1.357       .  S
C1965      C1966   1.402       .  A
C1965      C1970   1.400       .  A
C1965      H1972   1.083       .  S
C1966      C1967   1.406       .  A
C1967      C1968   1.395       .  A
C1967      F1974   1.357       .  S
C1968      C1969   1.399       .  A
C1968      H1973   1.084       .  S
C1969      C1970   1.407       .  A
C1970      F1971   1.358       .  S
C1975      C1976   1.400       .  A
C1975      C1980   1.402       .  A
C1975      H1982   1.083       .  S
C1976      C1977   1.401       .  A
C1977      C1978   1.390       .  A
C1977      F1984   1.358       .  S
C1978      C1979   1.409       .  A
C1978      H1983   1.083       .  S
C1979      C1980   1.412       .  A
C1980      F1981   1.357       .  S
C1985      C1986   1.401       .  A
C1985      C1990   1.399       .  A
C1985      H1992   1.083       .  S
C1986      C1987   1.400       .  A
C1987      C1988   1.396       .  A
C1987      F1994   1.358       .  S
C1988      C1989   1.406       .  A
C1988      H1993   1.083       .  S
C1989      C1990   1.408       .  A
C1990      F1991   1.357       .  S
C1995      C1996   1.406       .  A
C1995      C2000   1.401       .  A
C1995      H2002   1.083       .  S
C1996      C1997   1.411       .  A
C1997      C1998   1.392       .  A
C1997      F2004   1.358       .  S
C1998      C1999   1.396       .  A
C1998      H2003   1.084       .  S
C1999      C2000   1.403       .  A
C2000      F2001   1.357       .  S
C2005      C2006   1.404       .  A
C2005      C2010   1.400       .  A
C2005      H2012   1.083       .  S
C2006      C2007   1.405       .  A
C2007      C2008   1.395       .  A
C2007      F2014   1.357       .  S
C2008      C2009   1.398       .  A
C2008      H2013   1.081       .  S
C2009      C2010   1.406       .  A
C2010      F2011   1.357       .  S
C2015      C2016   1.408       .  A
C2015      C2020   1.389       .  A
C2015      H2022   1.083       .  S
C2016      C2017   1.409       .  A
C2017      C2018   1.401       .  A
C2017      F2024   1.357       .  S
C2018      C2019   1.402       .  A
C2018      H2023   1.082       .  S
C2019      C2020   1.397       .  A
C2020      F2021   1.357       .  S
C2025      C2026   1.399       .  A
C2025      C2030   1.393       .  A
C2025      H2032   1.083       .  S
C2026      C2027   1.405       .  A
C2027      C2028   1.396       .  A
C2027      F2034   1.357       .  S
C2028      C2029   1.401       .  A
C2028      H2033   1.083       .  S
C2029      C2030   1.404       .  A
C2030      F2031   1.358       .  S
C2035      C2036   1.402       .  A
C2035      C2040   1.403       .  A
C2035      H2042   1.081       .  S
C2036      C2037   1.401       .  A
C2037      C2038   1.394       .  A
C2037      F2044   1.358       .  S
C2038      C2039   1.410       .  A
C2038      H2043   1.083       .  S
C2039      C2040   1.412       .  A
C2040      F2041   1.357       .  S
C2045      C2046   1.407       .  A
C2045      C2050   1.398       .  A
C2045      H2052   1.083       .  S
C2046      C2047   1.409       .  A
C2047      C2048   1.392       .  A
C2047      F2054   1.358       .  S
C2048      C2049   1.397       .  A
C2048      H2053   1.084       .  S
C2049      C2050   1.401       .  A
C2050      F2051   1.357       .  S
C2055      C2056   1.405       .  A
C2055      C2060   1.400       .  A
C2055      H2062   1.084       .  S
C2056      C2057   1.410       .  A
C2057      C2058   1.392       .  A
C2057      F2064   1.358       .  S
C2058      C2059   1.396       .  A
C2058      H2063   1.083       .  S
C2059      C2060   1.403       .  A
C2060      F2061   1.357       .  S
