geometry optimzed in LAMMPS
_audit_creation_date              2020-11-30 
_audit_creation_method            'lammps2cif' 
_symmetry_space_group_name_H-M    'P1' 
_symmetry_Int_Tables_number       1 
_symmetry_cell_setting            triclinic 
loop_ 
_symmetry_equiv_pos_as_xyz 
  x,y,z 
_cell_length_a                    32.93761135 
_cell_length_b                    33.15872308795121 
_cell_length_c                    56.65313530448601 
_cell_angle_alpha                 89.63670410787404 
_cell_angle_beta                  90.68976544096438 
_cell_angle_gamma                 113.12530404345777 
loop_ 
_atom_site_label 
_atom_site_type_symbol 
_atom_site_fract_x 
_atom_site_fract_y 
_atom_site_fract_z 
_atom_site_charge 
C1          C  0.97272187  0.98364068  0.72390789     0.46300
H2          H  0.97764583  0.98167884  0.70467106    -0.02700
C3          C  0.96057309  0.98678264  0.76908259     0.46400
H4          H  0.95522115  0.98769343  0.78833365    -0.02700
C5          C  0.96445776  0.02457137  0.73132549    -0.16400
C6          C  0.93346314  0.94361343  0.73335370    -0.16200
C7          C  0.01244647  0.98514146  0.73917314    -0.16500
C8          C  0.95833701  0.02623725  0.75528135    -0.16500
C9          C  0.92668976  0.94568184  0.75723452    -0.16100
C10         C  0.00554427  0.98579760  0.76305961    -0.16400
O11         O  0.60909419  0.26789944  0.98521333    -0.77600
C12         C  0.71003914  0.26214067  0.03512632     0.83400
O13         O  0.63408730  0.39049588  0.03162978    -0.78700
O14         O  0.78908936  0.40619882  0.02980263    -0.80200
O15         O  0.74882535  0.34177017  0.94967799    -0.80000
O16         O  0.63811281  0.30254445  0.95196946    -0.78700
Zn17       Zn  0.64917768  0.30092036  0.01161931     1.55700
O18         O  0.79246173  0.34883270  0.98109246    -0.80000
Cd19       Cd  0.69561936  0.35226831  0.96355847     1.59700
Cd20       Cd  0.68991255  0.40692579  0.01002802     1.59600
O21         O  0.69697617  0.41156353  0.95011155    -0.80000
O22         O  0.69678521  0.35246585  0.99894938    -1.90500
Cd23       Cd  0.75437757  0.35112198  0.00969566     1.59900
O24         O  0.68506878  0.44562550  0.98147747    -0.80000
O25         O  0.74467052  0.29521778  0.02959150    -0.78700
C26         C  0.60734726  0.35350107  0.03960568     0.83900
C27         C  0.60756749  0.27214350  0.96289044     0.83500
O28         O  0.67182642  0.25988319  0.02894646    -0.77600
C29         C  0.78490505  0.34338208  0.95895133     0.84400
O30         O  0.61082766  0.31793031  0.03382266    -0.77700
C31         C  0.69067818  0.44368473  0.95928724     0.84500
C32         C  0.78161099  0.43982947  0.03542768     0.84800
O33         O  0.74640902  0.44472854  0.02918678    -0.80100
N34         N  0.67151703  0.67218979  0.84683836    -0.02600
C35         C  0.69134018  0.68531931  0.82558597     0.00000
C36         C  0.66064551  0.68629850  0.80890350    -0.22900
C37         C  0.62118385  0.67468351  0.82018288    -0.23100
C38         C  0.62879368  0.66657225  0.84334416    -0.00100
H39         H  0.66754350  0.70020174  0.79133297     0.13700
H40         H  0.59159135  0.67704169  0.81300293     0.13700
O41         O  0.23834410  0.69301613  0.02768472    -0.77600
C42         C  0.23013122  0.62861379  0.96012907     0.83400
O43         O  0.36841789  0.65731545  0.02278129    -0.78700
O44         O  0.36870341  0.70201811  0.94257130    -0.80200
O45         O  0.32441406  0.81222048  0.97510105    -0.80000
O46         O  0.27218947  0.76569613  0.02486583    -0.78700
Zn47       Zn  0.27363044  0.66808490  0.00757358     1.55700
O48         O  0.31418517  0.76893933  0.94367311    -0.80000
Cd49       Cd  0.32601430  0.77427649  0.00387092     1.59700
Cd50       Cd  0.37958207  0.71163678  0.00217024     1.59600
O51         O  0.38334632  0.80902049  0.02325735    -0.80000
O52         O  0.32284222  0.71576756  0.99299705    -1.90500
Cd53       Cd  0.31602239  0.71169774  0.95774019     1.59900
O54         O  0.42019514  0.76546256  0.02135181    -0.80000
O55         O  0.25885663  0.65884670  0.94806568    -0.78700
C56         C  0.33360246  0.62831121  0.03138796     0.83900
C57         C  0.24111838  0.73151195  0.03275928     0.83500
O58         O  0.23243067  0.62868594  0.98260172    -0.77600
C59         C  0.31884171  0.80547363  0.95293132     0.84400
O60         O  0.29572027  0.62918924  0.02748272    -0.77700
C61         C  0.41683851  0.80036661  0.02848049     0.84500
C62         C  0.40402313  0.70023513  0.95098287     0.84800
O63         O  0.41270568  0.70454066  0.97302314    -0.80100
N64         N  0.35658413  0.35784568  0.13814245    -0.02600
C65         C  0.33851830  0.33730916  0.15858141     0.00000
C66         C  0.32530616  0.36452833  0.17215229    -0.22900
C67         C  0.33493953  0.40263546  0.15970426    -0.23100
C68         C  0.35380316  0.39754150  0.13897678    -0.00100
H69         H  0.30611398  0.35567081  0.18815433     0.13700
H70         H  0.32595397  0.42962835  0.16436507     0.13700
N71         N  0.29484760  0.06636236  0.87470254    -0.02600
C72         C  0.26507465  0.06987485  0.85902774     0.00000
C73         C  0.27390393  0.11343028  0.85426755    -0.22900
C74         C  0.31065560  0.13771503  0.86734635    -0.23100
C75         C  0.32317064  0.10807642  0.87941200    -0.00100
H76         H  0.25578247  0.12607275  0.84234495     0.13700
H77         H  0.32723473  0.17309586  0.86753689     0.13700
N78         N  0.00236193  0.71601475  0.14271480    -0.02600
C79         C  0.00184001  0.73373289  0.16417704     0.00000
C80         C  0.97627841  0.70152520  0.17965086    -0.22900
C81         C  0.95938393  0.66308190  0.16716979    -0.23100
C82         C  0.97600662  0.67285947  0.14468900    -0.00100
H83         H  0.96736251  0.70636702  0.19741898     0.13700
H84         H  0.93488882  0.63220776  0.17325200     0.13700
N85         N  0.03148737  0.32028215  0.86647146    -0.02600
C86         C  0.03907967  0.29308068  0.85092545     0.00000
C87         C  0.08318958  0.30935630  0.84497889    -0.22900
C88         C  0.10353167  0.34786237  0.85719818    -0.23100
C89         C  0.07115052  0.35404265  0.87011396    -0.00100
H90         H  0.09890608  0.29449370  0.83316838     0.13700
H91         H  0.13824829  0.36906381  0.85679155     0.13700
N92         N  0.71760711  0.00474408  0.12744156    -0.02600
C93         C  0.74706563  0.99688259  0.14183759     0.00000
C94         C  0.73130018  0.95296446  0.14785852    -0.22900
C95         C  0.69108816  0.93294821  0.13674036    -0.23100
C96         C  0.68362884  0.96522921  0.12418481    -0.00100
H97         H  0.74726100  0.93729483  0.15933886     0.13700
H98         H  0.66968268  0.89850739  0.13757502     0.13700
O99         O  0.73247580  0.30267545  0.46831711    -0.77600
C100        C  0.76654393  0.44168820  0.46719461     0.83400
O101        O  0.73931430  0.34295406  0.55006222    -0.78700
O102        O  0.67365854  0.44393804  0.51837505    -0.80200
O103        O  0.59135352  0.31602194  0.46685576    -0.80000
O104        O  0.66029665  0.26282713  0.46642863    -0.78700
Zn105      Zn  0.74029970  0.35248075  0.49055658     1.55700
O106        O  0.61786821  0.38884612  0.46888544    -0.80000
Cd107      Cd  0.63462471  0.29821309  0.48765439     1.59700
Cd108      Cd  0.68345448  0.34945962  0.53628463     1.59600
O109        O  0.59870869  0.25854665  0.51513461    -0.80000
O110        O  0.68369450  0.35115748  0.50095023    -1.90500
Cd111      Cd  0.67484224  0.40483194  0.48992086     1.59900
O112        O  0.62944343  0.29577553  0.54788155    -0.80000
O113        O  0.72937666  0.44403979  0.47083545    -0.78700
C114        C  0.77448140  0.34500121  0.54005321     0.83900
C115        C  0.69977163  0.26981183  0.46041607     0.83500
O116        O  0.77400724  0.40867354  0.47396804    -0.77600
C117        C  0.58900068  0.35251193  0.46138377     0.84400
O118        O  0.77899710  0.34907806  0.51777391    -0.77700
C119        C  0.60048749  0.26262362  0.53759035     0.84500
C120        C  0.67945532  0.44130720  0.54055461     0.84800
O121        O  0.68362663  0.40785129  0.54976318    -0.80100
N122        N  0.66470746  0.66422775  0.65295705    -0.02600
C123        C  0.68225188  0.68328980  0.67381373     0.00000
C124        C  0.64843187  0.67938682  0.68921352    -0.22900
C125        C  0.60943441  0.66077314  0.67678653    -0.23100
C126        C  0.62058586  0.65236852  0.65450691    -0.00100
H127        H  0.65210875  0.69530999  0.70619151     0.13700
H128        H  0.57749091  0.65890888  0.68245457     0.13700
O129        O  0.25282407  0.63386083  0.51276502    -0.77600
C130        C  0.24935216  0.73684337  0.46411878     0.83400
O131        O  0.38459369  0.67693019  0.46608626    -0.78700
O132        O  0.39448456  0.82475381  0.47415250    -0.80200
O133        O  0.33075937  0.77722844  0.55204856    -0.80000
O134        O  0.27649823  0.66666525  0.54726875    -0.78700
Zn135      Zn  0.28885225  0.67654641  0.48769596     1.55700
O136        O  0.33270474  0.81989546  0.52107661    -0.80000
Cd137      Cd  0.33179565  0.72073964  0.53660121     1.59700
Cd138      Cd  0.39388883  0.72554801  0.49048802     1.59600
O139        O  0.38443946  0.70781943  0.54921319    -0.80000
O140        O  0.33690045  0.72647173  0.50140790    -1.90500
Cd141      Cd  0.33646872  0.78455717  0.49152897     1.59900
O142        O  0.42598070  0.71025932  0.51814496    -0.80000
O143        O  0.28076601  0.77250263  0.47050225    -0.78700
C144        C  0.34978105  0.64450093  0.46002926     0.83900
C145        C  0.25080045  0.63417893  0.53520330     0.83500
O146        O  0.24919900  0.69924586  0.46931812    -0.77600
C147        C  0.33129253  0.81302713  0.54330316     0.84400
O148        O  0.31167427  0.64043495  0.46693230    -0.77700
C149        C  0.41776742  0.70378919  0.54006261     0.84500
C150        C  0.43073170  0.82018175  0.47072523     0.84800
O151        O  0.43487955  0.78473256  0.47625353    -0.80100
N152        N  0.32762166  0.05142110  0.65057936    -0.02600
C153        C  0.30610751  0.05121233  0.67093105     0.00000
C154        C  0.32807898  0.08968336  0.68324942    -0.22900
C155        C  0.36440094  0.11421269  0.67023778    -0.23100
C156        C  0.36338625  0.09004265  0.65031746    -0.00100
H157        H  0.31738109  0.09987301  0.69931246     0.13700
H158        H  0.38814689  0.14682112  0.67441176     0.13700
N159        N  0.03489324  0.31984570  0.62128377    -0.02600
C160        C  0.04015128  0.28677452  0.63354129     0.00000
C161        C  0.08438952  0.29647253  0.63762277    -0.22900
C162        C  0.10731729  0.33655806  0.62743809    -0.23100
C163        C  0.07644768  0.35027316  0.61737977    -0.00100
H164        H  0.09837757  0.27693407  0.64754812     0.13700
H165        H  0.14280223  0.35424346  0.62764395     0.13700
N166        N  0.98417680  0.74111850  0.37881319    -0.02600
C167        C  0.97201448  0.76828538  0.36522934     0.00000
C168        C  0.92810454  0.74773525  0.35853440    -0.22900
C169        C  0.91263064  0.70680357  0.36861599    -0.23100
C170        C  0.94776898  0.70373044  0.38084693    -0.00100
H171        H  0.90937991  0.76114284  0.34750211     0.13700
H172        H  0.87921216  0.68231176  0.36761218     0.13700
N173        N  0.36752149  0.38208764  0.34718980    -0.02600
C174        C  0.35047342  0.36748743  0.32535632     0.00000
C175        C  0.34251739  0.40022466  0.31336239    -0.22900
C176        C  0.35422411  0.43546525  0.32820832    -0.23100
C177        C  0.36903252  0.42347867  0.34888907    -0.00100
H178        H  0.32506318  0.39708800  0.29672068     0.13700
H179        H  0.34804426  0.46484391  0.32522514     0.13700
N180        N  0.72786434  0.02290067  0.37342249    -0.02600
C181        C  0.75404241  0.01050698  0.35928975     0.00000
C182        C  0.73424085  0.96600536  0.35490203    -0.22900
C183        C  0.69451365  0.95059646  0.36638050    -0.23100
C184        C  0.69099422  0.98618153  0.37735183    -0.00100
H185        H  0.74702202  0.94695793  0.34408955     0.13700
H186        H  0.67048629  0.91708176  0.36650134     0.13700
C187        C  0.06626067  0.07437982  0.27180782     0.46300
H188        H  0.06966040  0.07841956  0.29125704    -0.02700
C189        C  0.05726411  0.06556080  0.22626674     0.46400
H190        H  0.05364026  0.06243495  0.20676739    -0.02700
C191        C  0.02292337  0.07626731  0.26238875    -0.16400
C192        C  0.10405053  0.10925588  0.25790309    -0.16200
C193        C  0.06502263  0.02997956  0.26300100    -0.16500
C194        C  0.01824757  0.07163395  0.23823616    -0.16500
C195        C  0.09869917  0.10469312  0.23385408    -0.16100
C196        C  0.06105758  0.02555625  0.23868688    -0.16400
C197        C  0.98717900  0.07512427  0.27876340    -0.11100
C198        C  0.97315710  0.11001768  0.28068967     0.04400
C199        C  0.93804649  0.10627734  0.29566950    -0.11600
C200        C  0.91648021  0.06806234  0.30904756     0.19200
C201        C  0.93109818  0.03346335  0.30734827    -0.08700
C202        C  0.96673661  0.03770634  0.29282620    -0.01600
H203        H  0.92732270  0.13315835  0.29676361     0.05800
C204        C  0.87677449  0.06316478  0.32316555     0.21200
H205        H  0.97730060  0.01073019  0.29172770     0.10900
C206        C  0.83746279  0.05820250  0.31127316    -0.15000
C207        C  0.79753402  0.04588463  0.32346325     0.03900
C208        C  0.79628221  0.03860834  0.34805040    -0.10300
C209        C  0.83614020  0.04682957  0.36019836    -0.00400
C210        C  0.87620873  0.05941017  0.34802340    -0.05500
H211        H  0.83732037  0.06136138  0.29223350     0.06900
H212        H  0.83578989  0.04046198  0.37895330     0.10300
Br213      Br  0.90120884  0.97820162  0.32290480    -0.05200
Br214      Br  0.00216380  0.16397588  0.26402869    -0.02200
Br215      Br  0.74456931  0.03528285  0.30551442     0.00700
Br216      Br  0.92894808  0.06901491  0.36595690    -0.03700
C217        C  0.14351770  0.14279097  0.26966217    -0.11100
C218        C  0.18600611  0.14191922  0.26826060     0.04400
C219        C  0.22230555  0.17489393  0.27900099    -0.11600
C220        C  0.21750421  0.20951342  0.29101642     0.19200
C221        C  0.17529311  0.21103519  0.29192542    -0.08700
C222        C  0.13863840  0.17718737  0.28190843    -0.01600
H223        H  0.25459023  0.17363030  0.27789789     0.05800
C224        C  0.25728238  0.24500988  0.30115222     0.21200
H225        H  0.10644094  0.17870164  0.28279967     0.10900
C226        C  0.29050270  0.27129428  0.28591142    -0.15000
C227        C  0.32527090  0.30882637  0.29425719     0.03900
C228        C  0.32700890  0.32096503  0.31823477    -0.10300
C229        C  0.29653425  0.29197311  0.33391002    -0.00400
C230        C  0.26202570  0.25404280  0.32556406    -0.05500
H231        H  0.28821988  0.26380605  0.26722121     0.06900
H232        H  0.29735518  0.30051211  0.35238963     0.10300
Br233      Br  0.16658159  0.26045986  0.30471918    -0.05200
Br234      Br  0.19687516  0.09597524  0.25286133    -0.02200
Br235      Br  0.36806002  0.34394269  0.27185665     0.00700
Br236      Br  0.22135394  0.21628664  0.34799610    -0.03700
C237        C  0.00032953  0.81261405  0.35713732    -0.11100
C238        C  0.98612690  0.84723044  0.35987563     0.04400
C239        C  0.00410100  0.88469013  0.34592917    -0.11600
C240        C  0.03619313  0.88828674  0.32919064     0.19200
C241        C  0.05371788  0.85586189  0.32808060    -0.08700
C242        C  0.03567344  0.81811024  0.34210070    -0.01600
H243        H  0.99104109  0.90992651  0.34709337     0.05800
C244        C  0.04614894  0.92316371  0.31131077     0.21200
H245        H  0.04673145  0.79166143  0.33980275     0.10900
C246        C  0.08132577  0.96343168  0.31497801    -0.15000
C247        C  0.08826500  0.99863129  0.29957200     0.03900
C248        C  0.05980579  0.99351354  0.27983807    -0.10300
C249        C  0.02444514  0.95289999  0.27643440    -0.00400
C250        C  0.01757360  0.91795249  0.29188161    -0.05500
H251        H  0.10299695  0.96768185  0.33012802     0.06900
H252        H  0.00149640  0.94843716  0.26190022     0.10300
Br253      Br  0.09927792  0.86019256  0.30625923    -0.05200
Br254      Br  0.93995836  0.84367620  0.38120054    -0.02200
Br255      Br  0.13815383  0.05168145  0.30636051     0.00700
Br256      Br  0.96788483  0.86394582  0.28615797    -0.03700
C257        C  0.08960631  0.39396113  0.60582016    -0.11100
C258        C  0.08478536  0.39889359  0.58133154     0.04400
C259        C  0.10694559  0.43986809  0.57054994    -0.11600
C260        C  0.13584643  0.47602256  0.58350987     0.19200
C261        C  0.13945982  0.47142254  0.60811801    -0.08700
C262        C  0.11622228  0.43091298  0.61897557    -0.01600
H263        H  0.10381534  0.44283265  0.55162828     0.05800
C264        C  0.16457904  0.51667535  0.57081929     0.21200
H265        H  0.12117624  0.42749462  0.63770487     0.10900
C266        C  0.16276831  0.55731338  0.57621275    -0.15000
C267        C  0.19067916  0.59611847  0.56502474     0.03900
C268        C  0.21990232  0.59449756  0.54742064    -0.10300
C269        C  0.22119649  0.55387254  0.54179118    -0.00400
C270        C  0.19467885  0.51545420  0.55356721    -0.05500
H271        H  0.13982652  0.55891290  0.58935067     0.06900
H272        H  0.24424149  0.55224538  0.52870648     0.10300
Br273      Br  0.17947708  0.51766157  0.62743564    -0.05200
Br274      Br  0.05414090  0.35003392  0.56112017    -0.02200
Br275      Br  0.18676621  0.65019561  0.57386964     0.00700
Br276      Br  0.20356322  0.46290499  0.54659678    -0.03700
C277        C  0.35424127  0.60932372  0.44596122    -0.11100
C278        C  0.37601596  0.61775882  0.42413754     0.04400
C279        C  0.38092849  0.58351114  0.41183832    -0.11600
C280        C  0.36518643  0.54085791  0.42120441     0.19200
C281        C  0.34538503  0.53293154  0.44359308    -0.08700
C282        C  0.33933312  0.56689826  0.45557205    -0.01600
H283        H  0.39615660  0.58994362  0.39462053     0.05800
C284        C  0.36629582  0.50486189  0.40625943     0.21200
H285        H  0.32391542  0.56043812  0.47274368     0.10900
C286        C  0.40706314  0.50481056  0.39914300    -0.15000
C287        C  0.40890900  0.47587678  0.38160874     0.03900
C288        C  0.36959006  0.44650025  0.37115461    -0.10300
C289        C  0.32894667  0.44477309  0.37932896    -0.00400
C290        C  0.32697540  0.47392185  0.39645282    -0.05500
H291        H  0.43750383  0.52872572  0.40641777     0.06900
H292        H  0.29855621  0.42267751  0.37105834     0.10300
Br293      Br  0.32741346  0.47673924  0.45874907    -0.05200
Br294      Br  0.39750441  0.67488063  0.40990794    -0.02200
Br295      Br  0.46543790  0.47984070  0.37110214     0.00700
Br296      Br  0.26996153  0.47385895  0.40329567    -0.03700
C297        C  0.32191642  0.01410508  0.63605868    -0.11100
C298        C  0.30226520  0.00885481  0.61349124     0.04400
C299        C  0.30187389  0.97477554  0.59878021    -0.11600
C300        C  0.32157791  0.94609129  0.60618215     0.19200
C301        C  0.34151722  0.95167710  0.62871968    -0.08700
C302        C  0.34102976  0.98509005  0.64353158    -0.01600
H303        H  0.28688082  0.97110034  0.58137446     0.05800
C304        C  0.32299014  0.91183034  0.58988015     0.21200
H305        H  0.35731951  0.98979859  0.66062214     0.10900
C306        C  0.35384126  0.92378201  0.57159208    -0.15000
C307        C  0.35737191  0.89209798  0.55641881     0.03900
C308        C  0.32955492  0.84742572  0.55937994    -0.10300
C309        C  0.29892451  0.83552798  0.57783847    -0.00400
C310        C  0.29525068  0.86731306  0.59288636    -0.05500
H311        H  0.37579258  0.95785763  0.56937608     0.06900
H312        H  0.27716992  0.80145602  0.58028935     0.10300
Br313      Br  0.37241183  0.91636290  0.63932181    -0.05200
Br314      Br  0.27698800  0.04829267  0.60196943    -0.02200
Br315      Br  0.40281100  0.91135731  0.53304516     0.00700
Br316      Br  0.25128555  0.84870089  0.61699613    -0.03700
C317        C  0.65162679  0.98261722  0.39125583    -0.11100
C318        C  0.60889463  0.96215631  0.38138788     0.04400
C319        C  0.57198533  0.94608752  0.39602923    -0.11600
C320        C  0.57657849  0.95106631  0.42061915     0.19200
C321        C  0.61864831  0.97655250  0.43017526    -0.08700
C322        C  0.65581045  0.99165739  0.41555472    -0.01600
H323        H  0.54002390  0.92705542  0.38827635     0.05800
C324        C  0.53972871  0.92237992  0.43578736     0.21200
H325        H  0.68801187  0.00762180  0.42350839     0.10900
C326        C  0.54717643  0.89124645  0.45007261    -0.15000
C327        C  0.51285241  0.85899911  0.46219636     0.03900
C328        C  0.46899509  0.85650899  0.45984341    -0.10300
C329        C  0.46183641  0.88895417  0.44628208    -0.00400
C330        C  0.49662358  0.92154813  0.43429702    -0.05500
H331        H  0.58002361  0.89121968  0.45130516     0.06900
H332        H  0.42885041  0.88840681  0.44446772     0.10300
Br333      Br  0.62716893  0.98960061  0.46326950    -0.05200
Br334      Br  0.59941457  0.95346865  0.34799110    -0.02200
Br335      Br  0.52956453  0.82045382  0.48189685     0.00700
Br336      Br  0.48372613  0.96431289  0.41626652    -0.03700
C337        C  0.02695234  0.74811669  0.38837053    -0.11100
C338        C  0.04217885  0.77174613  0.40940624     0.04400
C339        C  0.08038822  0.77185042  0.42054178    -0.11600
C340        C  0.10381209  0.74870079  0.41083324     0.19200
C341        C  0.08932882  0.72617931  0.38938591    -0.08700
C342        C  0.05098068  0.72587759  0.37837855    -0.01600
H343        H  0.09120778  0.78901241  0.43713450     0.05800
C344        C  0.14144263  0.74593461  0.42412247     0.21200
H345        H  0.03894355  0.70713478  0.36234939     0.10900
C346        C  0.13328645  0.71289461  0.44111989    -0.15000
C347        C  0.16788630  0.70938781  0.45434601     0.03900
C348        C  0.21178908  0.73923828  0.45045413    -0.10300
C349        C  0.21969841  0.77265619  0.43356183    -0.00400
C350        C  0.18492044  0.77608300  0.42041374    -0.05500
H351        H  0.09970970  0.69004969  0.44430057     0.06900
H352        H  0.25307411  0.79602480  0.43045931     0.10300
Br353      Br  0.11989783  0.69400079  0.37513902    -0.05200
Br354      Br  0.00992629  0.80149602  0.42424119    -0.02200
Br355      Br  0.15243411  0.66537580  0.47866757     0.00700
Br356      Br  0.19794912  0.82244109  0.39768076    -0.03700
C357        C  0.59224616  0.64771580  0.63350734    -0.11100
C358        C  0.54800230  0.61762907  0.63247969     0.04400
C359        C  0.52063800  0.62042169  0.61404353    -0.11600
C360        C  0.53665613  0.65328175  0.59676016     0.19200
C361        C  0.58142564  0.68202442  0.59721123    -0.08700
C362        C  0.60879565  0.67874804  0.61538227    -0.01600
H363        H  0.48605662  0.59856660  0.61394294     0.05800
C364        C  0.50473247  0.66287444  0.58179300     0.21200
H365        H  0.64232240  0.70304216  0.61637027     0.10900
C366        C  0.47580778  0.67808617  0.59293708    -0.15000
C367        C  0.44694709  0.69119856  0.57993869     0.03900
C368        C  0.44724512  0.68988618  0.55496947    -0.10300
C369        C  0.47574588  0.67346879  0.54387368    -0.00400
C370        C  0.50396974  0.65954463  0.55708284    -0.05500
H371        H  0.47627740  0.68051079  0.61201802     0.06900
H372        H  0.47578574  0.67084997  0.52483040     0.10300
Br373      Br  0.60555020  0.73027188  0.57558921    -0.05200
Br374      Br  0.52293701  0.57359888  0.65621432    -0.02200
Br375      Br  0.40953605  0.71135961  0.59800500     0.00700
Br376      Br  0.53977871  0.63510077  0.54078221    -0.03700
C377        C  0.81081108  0.34205431  0.55454497    -0.11100
C378        C  0.85469488  0.37268594  0.55209753     0.04400
C379        C  0.88870859  0.36742695  0.56508864    -0.11600
C380        C  0.87984288  0.33185089  0.58054698     0.19200
C381        C  0.83585136  0.30202455  0.58359771    -0.08700
C382        C  0.80172484  0.30742981  0.57072561    -0.01600
H383        H  0.92236891  0.39086684  0.56287709     0.05800
C384        C  0.91729743  0.32592469  0.59257586     0.21200
H385        H  0.76810447  0.28388938  0.57292718     0.10900
C386        C  0.94050921  0.35475387  0.61070756    -0.15000
C387        C  0.97842722  0.35220247  0.62093535     0.03900
C388        C  0.99385868  0.32079332  0.61284387    -0.10300
C389        C  0.96979598  0.29123520  0.59527152    -0.00400
C390        C  0.93210413  0.29372908  0.58497741    -0.05500
H391        H  0.92929320  0.37961284  0.61675299     0.06900
H392        H  0.98196493  0.26758205  0.58849469     0.10300
Br393      Br  0.82095485  0.25348248  0.60506084    -0.05200
Br394      Br  0.86967968  0.42333405  0.53210691    -0.02200
Br395      Br  0.00754813  0.39121199  0.64624728     0.00700
Br396      Br  0.90395374  0.25464470  0.55941506    -0.03700
C397        C  0.70773375  0.23819178  0.44444708    -0.11100
C398        C  0.74588181  0.24989073  0.43022984     0.04400
C399        C  0.75262043  0.21794231  0.41657137    -0.11600
C400        C  0.72191247  0.17440422  0.41657142     0.19200
C401        C  0.68361129  0.16284462  0.43023611    -0.08700
C402        C  0.67671338  0.19452988  0.44389155    -0.01600
H403        H  0.78200999  0.22706748  0.40592568     0.05800
C404        C  0.73061226  0.14067264  0.40303570     0.21200
H405        H  0.64732274  0.18459548  0.45458200     0.10900
C406        C  0.75400682  0.11822869  0.41399930    -0.15000
C407        C  0.75637155  0.08117738  0.40343780     0.03900
C408        C  0.73505147  0.06606723  0.38164682    -0.10300
C409        C  0.71383527  0.08996737  0.37004664    -0.00400
C410        C  0.71172911  0.12726059  0.38051629    -0.05500
H411        H  0.76848671  0.12821261  0.43137091     0.06900
H412        H  0.69700530  0.07819770  0.35337789     0.10300
Br413      Br  0.64036658  0.10369699  0.43124323    -0.05200
Br414      Br  0.78933015  0.30885552  0.42771024    -0.02200
Br415      Br  0.78491913  0.04936521  0.42044501     0.00700
Br416      Br  0.68051947  0.15736855  0.36424176    -0.03700
C417        C  0.39485318  0.10724206  0.63068426    -0.11100
C418        C  0.39749313  0.14533463  0.61848549     0.04400
C419        C  0.43116445  0.16512980  0.60229012    -0.11600
C420        C  0.46252489  0.14742790  0.59757144     0.19200
C421        C  0.45953684  0.10881004  0.60947610    -0.08700
C422        C  0.42575545  0.08898454  0.62586324    -0.01600
H423        H  0.43325378  0.19500864  0.59351680     0.05800
C424        C  0.49872665  0.17136718  0.58094885     0.21200
H425        H  0.42449810  0.06010396  0.63538778     0.10900
C426        C  0.54259013  0.18930465  0.58920999    -0.15000
C427        C  0.57666028  0.21720472  0.57494361     0.03900
C428        C  0.56690913  0.22867691  0.55212595    -0.10300
C429        C  0.52344301  0.20880779  0.54345107    -0.00400
C430        C  0.48957860  0.18039693  0.55757583    -0.05500
H431        H  0.55024768  0.18242634  0.60705188     0.06900
H432        H  0.51539683  0.21652161  0.52584845     0.10300
Br433      Br  0.50059574  0.08195100  0.60399702    -0.05200
Br434      Br  0.35578751  0.17177563  0.62327600    -0.02200
Br435      Br  0.63593453  0.23705002  0.58722361     0.00700
Br436      Br  0.43123722  0.15491790  0.54412183    -0.03700
C437        C  0.39057897  0.36374063  0.36305607    -0.11100
C438        C  0.42916427  0.35863737  0.35575471     0.04400
C439        C  0.45741614  0.35153602  0.37245908    -0.11600
C440        C  0.44827590  0.34937050  0.39666942     0.19200
C441        C  0.40856218  0.35211866  0.40390090    -0.08700
C442        C  0.38016149  0.35911190  0.38716586    -0.01600
H443        H  0.48798336  0.35003742  0.36659919     0.05800
C444        C  0.48256540  0.34862505  0.41397764     0.21200
H445        H  0.35078234  0.36300659  0.39309065     0.10900
C446        C  0.50292304  0.38471769  0.42896644    -0.15000
C447        C  0.53716053  0.38682967  0.44457309     0.03900
C448        C  0.55212088  0.35214500  0.44546310    -0.10300
C449        C  0.53130876  0.31587429  0.43046631    -0.00400
C450        C  0.49727862  0.31405514  0.41479114    -0.05500
H451        H  0.49235761  0.41180899  0.42833660     0.06900
H452        H  0.54196827  0.28885432  0.43062181     0.10300
Br453      Br  0.39221361  0.34763930  0.43648366    -0.05200
Br454      Br  0.44814539  0.36660046  0.32359629    -0.02200
Br455      Br  0.56049780  0.43760454  0.46451283     0.00700
Br456      Br  0.47157677  0.26328232  0.39505866    -0.03700
C457        C  0.94305518  0.66671999  0.39642099    -0.11100
C458        C  0.93252144  0.62482274  0.38683583     0.04400
C459        C  0.91208575  0.58781950  0.40088907    -0.11600
C460        C  0.90190656  0.59239333  0.42439030     0.19200
C461        C  0.91769485  0.63429391  0.43477017    -0.08700
C462        C  0.93811809  0.67132466  0.42066367    -0.01600
H463        H  0.90068972  0.55557521  0.39293087     0.05800
C464        C  0.86821535  0.55445306  0.43603564     0.21200
H465        H  0.94626342  0.70355671  0.42815521     0.10900
C466        C  0.87820616  0.51890486  0.44305118    -0.15000
C467        C  0.84577454  0.48125426  0.45271362     0.03900
C468        C  0.80209711  0.47905280  0.45556766    -0.10300
C469        C  0.79242598  0.51478180  0.44792885    -0.00400
C470        C  0.82478406  0.55192940  0.43808794    -0.05500
H471        H  0.91139793  0.52039314  0.44082321     0.06900
H472        H  0.75938242  0.51399690  0.44947961     0.10300
Br473      Br  0.90758241  0.64237962  0.46736314    -0.05200
Br474      Br  0.94147764  0.61688000  0.35410672    -0.02200
Br475      Br  0.86460089  0.43495163  0.46111977     0.00700
Br476      Br  0.80737290  0.59751152  0.42662379    -0.03700
C477        C  0.68194187  0.63893782  0.63861679    -0.11100
C478        C  0.67176415  0.59449535  0.64423902     0.04400
C479        C  0.67767010  0.56648602  0.62757738    -0.11600
C480        C  0.69398520  0.58175568  0.60508472     0.19200
C481        C  0.70654385  0.62670002  0.59982498    -0.08700
C482        C  0.70056310  0.65493993  0.61659256    -0.01600
H483        H  0.66768562  0.53205669  0.63186943     0.05800
C484        C  0.69410074  0.54916715  0.58716742     0.21200
H485        H  0.70848622  0.68891634  0.61203826     0.10900
C486        C  0.66516655  0.54031564  0.56766962    -0.24200
C487        C  0.66008409  0.50587273  0.55207418     0.03900
C488        C  0.68368460  0.47882447  0.55611670    -0.10300
C489        C  0.71321618  0.48838636  0.57542887    -0.00400
C490        C  0.71878932  0.52324772  0.59070717    -0.05500
H491        H  0.64541373  0.55952651  0.56496159     0.06900
H492        H  0.73252802  0.46886639  0.57856345     0.10300
Br493      Br  0.73114973  0.65062521  0.56989318    -0.05200
Br494      Br  0.64604270  0.56946414  0.67383040    -0.02200
Br495      Br  0.61821362  0.49587252  0.52665304     0.00700
Br496      Br  0.76128230  0.53485341  0.61592080    -0.03700
C497        C  0.78903263  0.02889568  0.15187340    -0.11100
C498        C  0.79026793  0.04308909  0.17536229     0.04400
C499        C  0.82997074  0.05786618  0.18832804    -0.11600
C500        C  0.86906056  0.05867110  0.17830123     0.19200
C501        C  0.86852813  0.04747530  0.15426099    -0.08700
C502        C  0.82874831  0.03286203  0.14127482    -0.01600
H503        H  0.82972226  0.06600002  0.20680756     0.05800
C504        C  0.90730688  0.06387109  0.19411989     0.21200
H505        H  0.82811882  0.02071782  0.12350256     0.10900
C506        C  0.90359492  0.02954771  0.20972354    -0.15000
C507        C  0.93886577  0.03165639  0.22445594     0.03900
C508        C  0.97870585  0.06921537  0.22425320    -0.10300
C509        C  0.98250221  0.10357696  0.20862995    -0.00400
C510        C  0.94721603  0.10129215  0.19373936    -0.05500
H511        H  0.87336146  0.00029191  0.20994743     0.06900
H512        H  0.01321643  0.13223051  0.20790754     0.10300
Br513      Br  0.91980012  0.04585004  0.13929562    -0.05200
Br514      Br  0.73730307  0.03736924  0.19136364    -0.02200
Br515      Br  0.93182216  0.98063125  0.24279399     0.00700
Br516      Br  0.95489810  0.15002471  0.17333969    -0.03700
C517        C  0.01278981  0.78091179  0.16859700    -0.11100
C518        C  0.97930674  0.79461889  0.17568397     0.04400
C519        C  0.99027487  0.83651759  0.18481491    -0.11600
C520        C  0.03408195  0.86722481  0.18532240     0.19200
C521        C  0.06729482  0.85497455  0.17595146    -0.08700
C522        C  0.05656545  0.81177660  0.16809778    -0.01600
H523        H  0.96420395  0.84485679  0.19191218     0.05800
C524        C  0.04391097  0.91007880  0.19729438     0.21200
H525        H  0.08254501  0.80211435  0.16216912     0.10900
C526        C  0.07585729  0.92362425  0.21541207    -0.15000
C527        C  0.08372771  0.96182668  0.22839193     0.03900
C528        C  0.05667168  0.98565454  0.22480080    -0.10300
C529        C  0.02482579  0.97205622  0.20659352    -0.00400
C530        C  0.01912485  0.93567879  0.19254497    -0.05500
H531        H  0.09507308  0.90440575  0.21950577     0.06900
H532        H  0.00405308  0.98990216  0.20308646     0.10300
Br533      Br  0.12740219  0.89592261  0.17296839    -0.05200
Br534      Br  0.91754640  0.75793746  0.17270804    -0.02200
Br535      Br  0.13438752  0.98063846  0.24889543     0.00700
Br536      Br  0.97833139  0.92414521  0.16645500    -0.03700
C537        C  0.13149646  0.13205545  0.21644147    -0.11100
C538        C  0.14177975  0.17725214  0.21407476     0.04400
C539        C  0.17771018  0.20314536  0.20037917    -0.11600
C540        C  0.20322628  0.18448924  0.18849546     0.19200
C541        C  0.19056149  0.13877504  0.18912465    -0.08700
C542        C  0.15443354  0.11278509  0.20280024    -0.01600
H543        H  0.18643005  0.23820239  0.19939311     0.05800
C544        C  0.24458040  0.21425750  0.17728987     0.21200
H545        H  0.14585542  0.07775853  0.20388917     0.10900
C546        C  0.28226325  0.23351097  0.19160415    -0.15000
C547        C  0.31793327  0.27073627  0.18396720     0.03900
C548        C  0.31611427  0.28932921  0.16175796    -0.10300
C549        C  0.28094246  0.26656759  0.14629449    -0.00400
C550        C  0.24498883  0.22949260  0.15402092    -0.05500
H551        H  0.28241945  0.22174645  0.20948303     0.06900
H552        H  0.27876349  0.28058087  0.12925306     0.10300
Br553      Br  0.22293704  0.11108505  0.17251766    -0.05200
Br554      Br  0.10671550  0.20468437  0.22832233    -0.02200
Br555      Br  0.36594890  0.29870198  0.20558040     0.00700
Br556      Br  0.19489390  0.20403514  0.13337495    -0.03700
C557        C  0.19521694  0.59139035  0.94744680    -0.11100
C558        C  0.15909149  0.55867777  0.95900797     0.04400
C559        C  0.13196072  0.52088582  0.94671186    -0.11600
C560        C  0.13959889  0.51487664  0.92295747     0.19200
C561        C  0.17320182  0.54867418  0.91096155    -0.08700
C562        C  0.20040604  0.58637233  0.92312171    -0.01600
H563        H  0.10575614  0.49520188  0.95598276     0.05800
C564        C  0.11639254  0.47136392  0.91178192     0.21200
H565        H  0.22724850  0.61084706  0.91361345     0.10900
C566        C  0.08511457  0.46583610  0.89370898    -0.15000
C567        C  0.06790487  0.42678980  0.88062760     0.03900
C568        C  0.08085591  0.39198096  0.88612569    -0.10300
C569        C  0.11103437  0.39720460  0.90471880    -0.00400
C570        C  0.12900540  0.43645947  0.91736417    -0.05500
H571        H  0.07609007  0.49290254  0.88886799     0.06900
H572        H  0.12256316  0.37140455  0.90856158     0.10300
Br573      Br  0.18587652  0.54316416  0.87844455    -0.05200
Br574      Br  0.14460210  0.56243582  0.99145774    -0.02200
Br575      Br  0.03228689  0.42535203  0.85341064     0.00700
Br576      Br  0.17442405  0.44266830  0.94032077    -0.03700
C577        C  0.33816582  0.59249041  0.04563109    -0.11100
C578        C  0.30721579  0.56845783  0.06284634     0.04400
C579        C  0.31427328  0.53576471  0.07590790    -0.11600
C580        C  0.35159228  0.52621912  0.07220563     0.19200
C581        C  0.38185310  0.54918608  0.05473799    -0.08700
C582        C  0.37520848  0.58215065  0.04180411    -0.01600
H583        H  0.29074985  0.51799024  0.08931709     0.05800
C584        C  0.35793820  0.49213854  0.08690619     0.21200
H585        H  0.39903002  0.59943506  0.02843284     0.10900
C586        C  0.32817129  0.44845707  0.08432979    -0.15000
C587        C  0.32872964  0.41624243  0.10020042     0.03900
C588        C  0.35989888  0.42750739  0.11882551    -0.10300
C589        C  0.39083565  0.47081573  0.12084992    -0.00400
C590        C  0.38999559  0.50316877  0.10510908    -0.05500
H591        H  0.30293590  0.43988304  0.07065869     0.06900
H592        H  0.41395597  0.47997908  0.13556250     0.10300
Br593      Br  0.43187232  0.53566751  0.04743914    -0.05200
Br594      Br  0.25586222  0.57956999  0.07042268    -0.02200
Br595      Br  0.28233952  0.35896162  0.09763042     0.00700
Br596      Br  0.43002689  0.56259464  0.11078589    -0.03700
C597        C  0.29664867  0.02666661  0.88409565    -0.11100
C598        C  0.29285085  0.01784757  0.90849006     0.04400
C599        C  0.29749833  0.98051676  0.91733294    -0.11600
C600        C  0.30756154  0.95220246  0.90238984     0.19200
C601        C  0.31043859  0.96045490  0.87788749    -0.08700
C602        C  0.30400222  0.99700136  0.86890502    -0.01600
H603        H  0.29393575  0.97386450  0.93611198     0.05800
C604        C  0.31442109  0.91437747  0.91304973     0.21200
H605        H  0.30691466  0.00360406  0.85012219     0.10900
C606        C  0.28604194  0.87147991  0.90691361    -0.15000
C607        C  0.28818032  0.83521813  0.91886067     0.03900
C608        C  0.31837388  0.84177778  0.93779888    -0.10300
C609        C  0.34771841  0.88463144  0.94332070    -0.00400
C610        C  0.34640514  0.92065938  0.93095590    -0.05500
H611        H  0.26110752  0.86623121  0.89330079     0.06900
H612        H  0.37179122  0.89017596  0.95744164     0.10300
Br613      Br  0.32639896  0.92498589  0.85626183    -0.05200
Br614      Br  0.28003215  0.05486353  0.93047708    -0.02200
Br615      Br  0.24671004  0.77808884  0.90970558     0.00700
Br616      Br  0.38941438  0.97777346  0.93907040    -0.03700
C617        C  0.20672118  0.73635440  0.04781938    -0.11100
C618        C  0.21586435  0.77204853  0.06346891     0.04400
C619        C  0.18224607  0.77442391  0.07759563    -0.11600
C620        C  0.13948997  0.74158617  0.07670823     0.19200
C621        C  0.13013259  0.70637647  0.06094483    -0.08700
C622        C  0.16352975  0.70401379  0.04669458    -0.01600
H623        H  0.18990592  0.80107686  0.09008205     0.05800
C624        C  0.10674765  0.74132439  0.09444225     0.21200
H625        H  0.15572394  0.67643581  0.03482609     0.10900
C626        C  0.06969507  0.74997448  0.08772182    -0.15000
C627        C  0.03599560  0.74461577  0.10392741     0.03900
C628        C  0.03944899  0.73088219  0.12710441    -0.10300
C629        C  0.07750888  0.72449184  0.13402121    -0.00400
C630        C  0.11079981  0.72923219  0.11792622    -0.05500
H631        H  0.06632783  0.75940522  0.06969944     0.06900
H632        H  0.07987524  0.71303790  0.15172797     0.10300
Br633      Br  0.07288786  0.65930635  0.05937388    -0.05200
Br634      Br  0.27414655  0.81631300  0.06824508    -0.02200
Br635      Br  0.98518786  0.75480111  0.09383998     0.00700
Br636      Br  0.15903682  0.71452675  0.12824614    -0.03700
C637        C  0.45290053  0.83133047  0.04329240    -0.11100
C638        C  0.47399540  0.81594880  0.06091166     0.04400
C639        C  0.50945080  0.84560095  0.07377314    -0.11600
C640        C  0.52465928  0.89083309  0.06965137     0.19200
C641        C  0.50321605  0.90655973  0.05248891    -0.08700
C642        C  0.46734092  0.87684650  0.03958320    -0.01600
H643        H  0.52561605  0.83322283  0.08703702     0.05800
C644        C  0.56421874  0.91989276  0.08298329     0.21200
H645        H  0.45137884  0.88926636  0.02624707     0.10900
C646        C  0.60512863  0.93701609  0.07157903    -0.15000
C647        C  0.64466296  0.95477647  0.08460837     0.03900
C648        C  0.64351111  0.95601148  0.10944721    -0.10300
C649        C  0.60245768  0.94088446  0.12069173    -0.00400
C650        C  0.56305497  0.92343116  0.10768927    -0.05500
H651        H  0.60644394  0.93358875  0.05263228     0.06900
H652        H  0.60109675  0.94099817  0.13978597     0.10300
Br653      Br  0.52164122  0.96809615  0.04635130    -0.05200
Br654      Br  0.45481877  0.75500476  0.06914473    -0.02200
Br655      Br  0.69900021  0.97073885  0.06788300     0.00700
Br656      Br  0.50836789  0.90256146  0.12447315    -0.03700
C657        C  0.59968127  0.66933585  0.86222047    -0.11100
C658        C  0.60006464  0.71051806  0.86858972     0.04400
C659        C  0.56784728  0.71290206  0.88359843    -0.11600
C660        C  0.53491971  0.67471509  0.89245875     0.19200
C661        C  0.53512018  0.63353109  0.88667765    -0.08700
C662        C  0.56744512  0.63105071  0.87154047    -0.01600
H663        H  0.56799591  0.74468739  0.88808548     0.05800
C664        C  0.50070781  0.67906252  0.90757311     0.21200
H665        H  0.56672731  0.59929059  0.86654030     0.10900
C666        C  0.45916215  0.67222207  0.89791201    -0.15000
C667        C  0.42700629  0.67907644  0.91137784     0.03900
C668        C  0.43640660  0.69299486  0.93519795    -0.10300
C669        C  0.47835689  0.69958277  0.94462712    -0.00400
C670        C  0.51026528  0.69298695  0.93105197    -0.05500
H671        H  0.45193563  0.66197034  0.87967897     0.06900
H672        H  0.48682098  0.71033276  0.96269923     0.10300
Br673      Br  0.49176351  0.58022510  0.89896402    -0.05200
Br674      Br  0.64289182  0.76449791  0.85647283    -0.02200
Br675      Br  0.37147251  0.66810933  0.89583057     0.00700
Br676      Br  0.56666314  0.70343568  0.94528708    -0.03700
C677        C  0.56841996  0.24146556  0.94979840    -0.11100
C678        C  0.55633316  0.25085194  0.92694540     0.04400
C679        C  0.51633005  0.22303638  0.91681283    -0.11600
C680        C  0.48789414  0.18597972  0.92888547     0.19200
C681        C  0.50044830  0.17525575  0.95099658    -0.08700
C682        C  0.54038857  0.20285008  0.96127190    -0.01600
H683        H  0.50654143  0.23117305  0.89969082     0.05800
C684        C  0.44406916  0.16088889  0.91860516     0.21200
H685        H  0.54900455  0.19441255  0.97858786     0.10900
C686        C  0.44013762  0.13217689  0.89989488    -0.15000
C687        C  0.40030902  0.11290494  0.88743102     0.03900
C688        C  0.36347571  0.12161830  0.89412587    -0.10300
C689        C  0.36739279  0.14978551  0.91316342    -0.00400
C690        C  0.40733326  0.16950283  0.92536559    -0.05500
H691        H  0.46879773  0.12663405  0.89420163     0.06900
H692        H  0.33969286  0.15780108  0.91794002     0.10300
Br693      Br  0.46346063  0.12385954  0.96789174    -0.05200
Br694      Br  0.59039021  0.30202234  0.90885750    -0.02200
Br695      Br  0.40041250  0.08074351  0.85946669     0.00700
Br696      Br  0.41130376  0.21086936  0.94974412    -0.03700
C697        C  0.39061200  0.35051160  0.12527294    -0.11100
C698        C  0.43513599  0.37089046  0.13267474     0.04400
C699        C  0.46886687  0.36842212  0.11873400    -0.11600
C700        C  0.45924346  0.34590279  0.09721247     0.19200
C701        C  0.41470868  0.32432833  0.09006647    -0.08700
C702        C  0.38073878  0.32678404  0.10407516    -0.01600
H703        H  0.50290797  0.38507418  0.12443722     0.05800
C704        C  0.49644260  0.34727329  0.08214751     0.21200
H705        H  0.34676931  0.31110701  0.09816880     0.10900
C706        C  0.51508599  0.31621417  0.08547726    -0.15000
C707        C  0.55156366  0.31796163  0.07225085     0.03900
C708        C  0.57027350  0.35150767  0.05518506    -0.10300
C709        C  0.55181987  0.38300927  0.05229573    -0.00400
C710        C  0.51534221  0.38105328  0.06552852    -0.05500
H711        H  0.50144975  0.29071904  0.09863640     0.06900
H712        H  0.56533574  0.40896525  0.03937638     0.10300
Br713      Br  0.39919426  0.29233947  0.06101511    -0.05200
Br714      Br  0.45159621  0.40403154  0.16137014    -0.02200
Br715      Br  0.57555802  0.27500143  0.07951802     0.00700
Br716      Br  0.49227658  0.42532005  0.06043351    -0.03700
C717        C  0.68267450  0.64388378  0.86282951    -0.11100
C718        C  0.69353112  0.65483984  0.88670391     0.04400
C719        C  0.69778426  0.62370556  0.90246462    -0.11600
C720        C  0.69108195  0.58124217  0.89481429     0.19200
C721        C  0.68044728  0.57045787  0.87085598    -0.08700
C722        C  0.67672928  0.60168614  0.85515964    -0.01600
H723        H  0.70567576  0.63242247  0.92084156     0.05800
C724        C  0.69275347  0.54783690  0.91215597     0.21200
H725        H  0.66712707  0.59245007  0.83699187     0.10900
C726        C  0.65909359  0.53071174  0.92889038    -0.15000
C727        C  0.65804308  0.49729485  0.94457524     0.03900
C728        C  0.69097485  0.48004590  0.94361546    -0.10300
C729        C  0.72493582  0.49765266  0.92705414    -0.00400
C730        C  0.72638593  0.53157106  0.91168953    -0.05500
H731        H  0.63293221  0.54277543  0.92941263     0.06900
H732        H  0.75089073  0.48533564  0.92627129     0.10300
Br733      Br  0.66716806  0.51245172  0.85907491    -0.05200
Br734      Br  0.70195923  0.71150765  0.89851121    -0.02200
Br735      Br  0.60920835  0.47434262  0.96576608     0.00700
Br736      Br  0.77564080  0.55557367  0.89083445    -0.03700
C737        C  0.81860397  0.33789714  0.94365149    -0.11100
C738        C  0.86405665  0.36365150  0.94668188     0.04400
C739        C  0.89495522  0.35636755  0.93247579    -0.11600
C740        C  0.88171562  0.32348006  0.91517739     0.19200
C741        C  0.83633945  0.29754253  0.91214578    -0.08700
C742        C  0.80523544  0.30534695  0.92608130    -0.01600
H743        H  0.92972376  0.37657481  0.93494622     0.05800
C744        C  0.91642699  0.31642612  0.90135823     0.21200
H745        H  0.77051882  0.28488071  0.92372113     0.10900
C746        C  0.94763838  0.30472227  0.91348635    -0.15000
C747        C  0.98469196  0.30402778  0.90197359     0.03900
C748        C  0.99059671  0.31414943  0.87778267    -0.10300
C749        C  0.95817663  0.32323645  0.86528692    -0.00400
C750        C  0.92193635  0.32572295  0.87697204    -0.05500
H751        H  0.94402387  0.29776765  0.93223701     0.06900
H752        H  0.96281406  0.33148434  0.84671685     0.10300
Br753      Br  0.81542793  0.24931906  0.89043500    -0.05200
Br754      Br  0.88596889  0.41063370  0.96914086    -0.02200
Br755      Br  0.02715642  0.29044982  0.92009679     0.00700
Br756      Br  0.88433350  0.34727667  0.85950683    -0.03700
C757        C  0.95567976  0.64378168  0.12452369    -0.11100
C758        C  0.96977217  0.61085870  0.11746075     0.04400
C759        C  0.94465318  0.57930644  0.10095104    -0.11600
C760        C  0.90513301  0.57984059  0.09158825     0.19200
C761        C  0.89131143  0.61309638  0.09868814    -0.08700
C762        C  0.91686441  0.64493680  0.11477642    -0.01600
H763        H  0.95525292  0.55354369  0.09592142     0.05800
C764        C  0.87668834  0.54348012  0.07619661     0.21200
H765        H  0.90512771  0.66940650  0.12071951     0.10900
C766        C  0.85724220  0.50101178  0.08568267    -0.15000
C767        C  0.82696253  0.46657196  0.07242413     0.03900
C768        C  0.81507638  0.47462455  0.04945789    -0.10300
C769        C  0.83549462  0.51671143  0.03969829    -0.00400
C770        C  0.86680516  0.55082334  0.05268639    -0.05500
H771        H  0.86485772  0.49487996  0.10367495     0.06900
H772        H  0.82743424  0.52290755  0.02179980     0.10300
Br773      Br  0.83554229  0.61392085  0.08903277    -0.05200
Br774      Br  0.02160506  0.60653991  0.13086627    -0.02200
Br775      Br  0.80086462  0.40973731  0.08684398     0.00700
Br776      Br  0.89624244  0.60642754  0.03740842    -0.03700
C777        C  0.71393386  0.22509131  0.04875265    -0.11100
C778        C  0.75085678  0.23025130  0.06339623     0.04400
C779        C  0.75241575  0.19431986  0.07594615    -0.11600
C780        C  0.71806414  0.15274483  0.07427724     0.19200
C781        C  0.68138920  0.14728560  0.05963337    -0.08700
C782        C  0.67953970  0.18317264  0.04713786    -0.01600
H783        H  0.78042489  0.19900636  0.08744597     0.05800
C784        C  0.72023760  0.11614824  0.08882010     0.21200
H785        H  0.65109851  0.17806155  0.03591165     0.10900
C786        C  0.68951590  0.09846795  0.10690833    -0.15000
C787        C  0.69002132  0.06357730  0.12076435     0.03900
C788        C  0.72150251  0.04550834  0.11660660    -0.10300
C789        C  0.75369768  0.06463831  0.09940237    -0.00400
C790        C  0.75315796  0.09951627  0.08544729    -0.05500
H791        H  0.66494133  0.11184553  0.11021580     0.06900
H792        H  0.77786212  0.05080953  0.09599992     0.10300
Br793      Br  0.63356667  0.09118519  0.05558324    -0.05200
Br794      Br  0.79939505  0.28552094  0.06842055    -0.02200
Br795      Br  0.64810514  0.04274542  0.14572639     0.00700
Br796      Br  0.79615748  0.12124324  0.06099061    -0.03700
C797        C  0.89471184  0.90935271  0.77158572    -0.11100
C798        C  0.84904162  0.89054939  0.76648177     0.04400
C799        C  0.82179938  0.85258987  0.77841870    -0.11600
C800        C  0.83897102  0.83339516  0.79593639     0.19200
C801        C  0.88391374  0.85376564  0.80216809    -0.08700
C802        C  0.91123211  0.89170327  0.79022131    -0.01600
H803        H  0.78689844  0.83790949  0.77403423     0.05800
C804        C  0.80900916  0.79203981  0.80717189     0.21200
H805        H  0.94612353  0.90606650  0.79463632     0.10900
C806        C  0.79626360  0.75269540  0.79449091    -0.15000
C807        C  0.76110935  0.71488220  0.80212197     0.03900
C808        C  0.73799291  0.71605368  0.82272605    -0.10300
C809        C  0.75369277  0.75426180  0.83657002    -0.00400
C810        C  0.78862425  0.79219199  0.82885124    -0.05500
H811        H  0.81195608  0.75212591  0.77786356     0.06900
H812        H  0.73582611  0.75624044  0.85212247     0.10300
Br813      Br  0.90971438  0.82965998  0.82598786    -0.05200
Br814      Br  0.82164836  0.91662097  0.74454653    -0.02200
Br815      Br  0.74288100  0.66348280  0.78269817     0.00700
Br816      Br  0.80362854  0.84487515  0.84693815    -0.03700
C817        C  0.95804122  0.06573715  0.76774311    -0.11100
C818        C  0.92541647  0.06294750  0.78432307     0.04400
C819        C  0.92996648  0.09947505  0.79818562    -0.11600
C820        C  0.96654607  0.13928789  0.79564453     0.19200
C821        C  0.99822520  0.14263896  0.77840211    -0.08700
C822        C  0.99371573  0.10621089  0.76460754    -0.01600
H823        H  0.90534025  0.09657378  0.81131018     0.05800
C824        C  0.97398248  0.17566697  0.81252510     0.21200
H825        H  0.01945433  0.10890312  0.75223553     0.10900
C826        C  0.99287787  0.17412292  0.83464421    -0.15000
C827        C  0.00933114  0.21132992  0.84907905     0.03900
C828        C  0.00709573  0.25095330  0.84147440    -0.10300
C829        C  0.98453925  0.25132538  0.82034552    -0.00400
C830        C  0.96770588  0.21389643  0.80596968    -0.05500
H831        H  0.99743691  0.14475281  0.84001807     0.06900
H832        H  0.98299572  0.28165371  0.81413060     0.10300
Br833      Br  0.05012837  0.19529032  0.77435915    -0.05200
Br834      Br  0.87371117  0.01034494  0.78841871    -0.02200
Br835      Br  0.03862810  0.20784903  0.87798918     0.00700
Br836      Br  0.93889293  0.21707911  0.77688064    -0.03700
C837        C  0.22862716  0.03379242  0.84745621    -0.11100
C838        C  0.18901839  0.01039229  0.85938132     0.04400
C839        C  0.15031635  0.98811077  0.84644838    -0.11600
C840        C  0.15019418  0.99015654  0.82171417     0.19200
C841        C  0.19050975  0.01075011  0.80981613    -0.08700
C842        C  0.22941196  0.03161019  0.82277952    -0.01600
H843        H  0.11933145  0.97322110  0.85571169     0.05800
C844        C  0.10802650  0.98231536  0.80944606     0.21200
H845        H  0.25959238  0.05031619  0.81347326     0.10900
C846        C  0.08781774  0.01151719  0.81398849    -0.15000
C847        C  0.05235611  0.01137499  0.80028869     0.03900
C848        C  0.03677409  0.98172169  0.78127750    -0.10300
C849        C  0.05415922  0.94942500  0.77840372    -0.00400
C850        C  0.08984045  0.94978413  0.79217820    -0.05500
H851        H  0.10135122  0.03629551  0.82753600     0.06900
H852        H  0.04113491  0.92491871  0.76471121     0.10300
Br853      Br  0.19341600  0.01881906  0.77619724    -0.05200
Br854      Br  0.18383139  0.01447413  0.89280063    -0.02200
Br855      Br  0.03094186  0.05581977  0.80744214     0.00700
Br856      Br  0.11345168  0.90636507  0.78641842    -0.03700
C857        C  0.72464346  0.72214420  0.67533963    -0.11100
C858        C  0.72476547  0.76463282  0.67761558     0.04400
C859        C  0.76371536  0.79999149  0.68341547    -0.11600
C860        C  0.80425314  0.79543463  0.68492115     0.19200
C861        C  0.80479392  0.75368705  0.68010016    -0.08700
C862        C  0.76503372  0.71734632  0.67585312    -0.01600
H863        H  0.76194130  0.83119730  0.68721074     0.05800
C864        C  0.84381204  0.83352636  0.69378326     0.21200
H865        H  0.76561506  0.68524704  0.67325856     0.10900
C866        C  0.86896777  0.82705238  0.71253544    -0.15000
C867        C  0.90219889  0.86245516  0.72361827     0.03900
C868        C  0.90745184  0.90565676  0.71801000    -0.10300
C869        C  0.88508429  0.91255401  0.69819030    -0.00400
C870        C  0.85419238  0.87704313  0.68576345    -0.05500
H871        H  0.86237975  0.79433886  0.71901547     0.06900
H872        H  0.89046978  0.94570451  0.69286911     0.10300
Br873      Br  0.85860600  0.74436477  0.67830201    -0.05200
Br874      Br  0.67309589  0.77721649  0.67231664    -0.02200
Br875      Br  0.94172364  0.84995509  0.74472979     0.00700
Br876      Br  0.82788532  0.89031804  0.65791182    -0.03700
C877        C  0.96382878  0.05945740  0.71439922    -0.11100
C878        C  0.99800401  0.08006652  0.69807485     0.04400
C879        C  0.99830697  0.11566645  0.68467989    -0.11600
C880        C  0.96477815  0.13143062  0.68647768     0.19200
C881        C  0.92926525  0.10970174  0.70169765    -0.08700
C882        C  0.92915805  0.07427781  0.71553511    -0.01600
H883        H  0.02561812  0.13181685  0.67285927     0.05800
C884        C  0.96918770  0.17068568  0.67208393     0.21200
H885        H  0.90190004  0.05833366  0.72739317     0.10900
C886        C  0.97322272  0.16834659  0.64752392    -0.15000
C887        C  0.99235170  0.20638521  0.63387707     0.03900
C888        C  0.00542077  0.24798818  0.64444865    -0.10300
C889        C  0.99714488  0.25032122  0.66856429    -0.00400
C890        C  0.98026167  0.21227053  0.68250554    -0.05500
H891        H  0.96593942  0.13677136  0.63933896     0.06900
H892        H  0.00874863  0.28205235  0.67713774     0.10300
Br893      Br  0.87981746  0.12625729  0.70367554    -0.05200
Br894      Br  0.04692559  0.06396433  0.69321498    -0.02200
Br895      Br  0.00721671  0.19943750  0.60197765     0.00700
Br896      Br  0.98107976  0.21964839  0.71607000    -0.03700
C897        C  0.05448284  0.98665522  0.72878664    -0.11100
C898        C  0.09516679  0.02215887  0.73317681     0.04400
C899        C  0.13379830  0.02299522  0.72281026    -0.11600
C900        C  0.13313917  0.98895979  0.70808980     0.19200
C901        C  0.09290708  0.95306164  0.70405279    -0.08700
C902        C  0.05388694  0.95228355  0.71421040    -0.01600
H903        H  0.16445822  0.05113215  0.72566430     0.05800
C904        C  0.17438483  0.99411215  0.69574990     0.21200
H905        H  0.02303275  0.92468722  0.71084193     0.10900
C906        C  0.20782757  0.98618978  0.70799378    -0.15000
C907        C  0.25049689  0.00010742  0.69869967     0.03900
C908        C  0.26016746  0.02201203  0.67677610    -0.10300
C909        C  0.22584404  0.02703565  0.66384789    -0.00400
C910        C  0.18336665  0.01362690  0.67321993    -0.05500
H911        H  0.20143534  0.97155053  0.72542601     0.06900
H912        H  0.23304182  0.04544551  0.64750244     0.10300
Br913      Br  0.09008220  0.90476171  0.68477038    -0.05200
Br914      Br  0.09956959  0.07284809  0.75098293    -0.02200
Br915      Br  0.29571435  0.99210190  0.71737608     0.00700
Br916      Br  0.14018190  0.02789025  0.65605565    -0.03700
loop_ 
_geom_bond_atom_site_label_1 
_geom_bond_atom_site_label_2 
_geom_bond_distance 
_geom_bond_site_symmetry_2 
_ccdc_geom_bond_type 
C1            H2   1.110       .  S
C1            C7   1.544   1_655  S
C1            C6   1.543       .  S
C1            C5   1.547   1_565  S
C3            H4   1.109       .  S
C3            C9   1.534       .  S
C3            C8   1.546   1_565  S
C3           C10   1.537   1_655  S
C5            C8   1.379       .  D
C5          C877   1.504       .  S
C6            C9   1.380       .  D
C6          C868   1.491       .  S
C7           C10   1.377       .  D
C7          C897   1.493       .  S
C8          C817   1.495       .  S
C9          C797   1.494       .  S
C10         C848   1.491       .  S
O11          C27   1.274       .  A
O11         Zn17   2.004   1_556  S
C12          O28   1.276       .  A
C12          O25   1.274       .  A
C12         C777   1.494       .  S
O13          C26   1.280       .  A
O13         Cd20   2.106       .  S
O14          C32   1.276       .  A
O14         Cd23   2.072       .  S
O15          C29   1.275       .  A
O15         Cd19   2.080       .  S
O16          C27   1.273       .  A
O16         Cd19   2.066       .  S
Zn17         O28   2.033       .  S
Zn17         O30   2.026       .  S
Zn17         O22   1.950   1_554  S
O18          C29   1.276       .  A
O18         Cd23   2.081   1_556  S
Cd19         O21   2.088       .  S
Cd19         O22   2.005       .  S
Cd20         O24   2.102   1_554  S
Cd20         O33   2.085       .  S
Cd20         O22   2.011   1_554  S
O21          C31   1.277       .  A
O22         Cd23   2.002   1_556  S
Cd23         O25   2.080       .  S
O24          C31   1.279       .  A
C26          O30   1.274       .  A
C26         C708   1.495       .  S
C27         C677   1.485       .  S
C29         C737   1.483       .  S
C31         C728   1.490       .  S
C32          O33   1.278       .  A
C32         C768   1.473       .  S
N34          C38   1.357       .  A
N34          C35   1.362       .  A
N34         C717   1.445       .  S
C35         C808   1.483       .  S
C35          C36   1.385       .  A
C36          C37   1.367       .  A
C36          H39   1.083       .  S
C37          C38   1.377       .  A
C37          H40   1.082       .  S
C38         C657   1.472       .  S
O41          C57   1.278       .  A
O41         Zn47   2.032       .  S
C42          O58   1.274       .  A
C42          O55   1.276       .  A
C42         C557   1.496       .  S
O43          C56   1.272       .  A
O43         Cd50   2.051       .  S
O44          C62   1.274       .  A
O44         Cd53   2.081       .  S
O45          C59   1.276       .  A
O45         Cd49   2.066   1_556  S
O46          C57   1.275       .  A
O46         Cd49   2.071       .  S
Zn47         O58   2.033   1_554  S
Zn47         O60   2.041       .  S
Zn47         O52   1.952   1_554  S
O48          C59   1.275       .  A
O48         Cd53   2.076       .  S
Cd49         O51   2.087       .  S
Cd49         O52   2.002   1_554  S
Cd50         O54   2.066       .  S
Cd50         O63   2.055   1_554  S
Cd50         O52   1.990   1_554  S
O51          C61   1.275       .  A
O52         Cd53   2.007       .  S
Cd53         O55   2.077       .  S
O54          C61   1.274       .  A
C56          O60   1.276       .  A
C56         C577   1.486       .  S
C57         C617   1.485       .  S
C59         C608   1.478       .  S
C61         C637   1.483       .  S
C62          O63   1.274       .  A
C62         C668   1.491       .  S
N64          C68   1.356       .  A
N64          C65   1.359       .  A
N64         C697   1.443       .  S
C65         C548   1.478       .  S
C65          C66   1.386       .  A
C66          C67   1.369       .  A
C66          H69   1.083       .  S
C67          C68   1.377       .  A
C67          H70   1.082       .  S
C68         C588   1.472       .  S
N71          C75   1.356       .  A
N71          C72   1.353       .  A
N71         C597   1.439       .  S
C72         C837   1.471       .  S
C72          C73   1.382       .  A
C73          C74   1.372       .  A
C73          H76   1.082       .  S
C74          C75   1.381       .  A
C74          H77   1.082       .  S
C75         C688   1.473       .  S
N78          C82   1.356   1_455  A
N78          C79   1.357       .  A
N78         C628   1.437       .  S
C79         C517   1.483       .  S
C79          C80   1.385   1_455  A
C80          C81   1.371       .  A
C80          H83   1.082       .  S
C81          C82   1.378       .  A
C81          H84   1.082       .  S
C82         C757   1.474       .  S
N85          C89   1.360       .  A
N85          C86   1.358       .  A
N85         C748   1.439   1_455  S
C86         C828   1.479       .  S
C86          C87   1.382       .  A
C87          C88   1.373       .  A
C87          H90   1.082       .  S
C88          C89   1.381       .  A
C88          H91   1.082       .  S
C89         C568   1.483       .  S
N92          C96   1.360   1_545  A
N92          C93   1.361   1_545  A
N92         C788   1.441       .  S
C93         C497   1.482   1_565  S
C93          C94   1.382       .  A
C94          C95   1.373       .  A
C94          H97   1.082       .  S
C95          C96   1.380       .  A
C95          H98   1.082       .  S
C96         C648   1.482       .  S
O99         C115   1.273       .  A
O99        Zn105   2.016       .  S
C100        O116   1.269       .  A
C100        O113   1.276       .  A
C100        C468   1.486       .  S
O101        C114   1.273       .  A
O101       Cd108   2.078       .  S
O102        C120   1.276       .  A
O102       Cd111   2.086       .  S
O103        C117   1.278       .  A
O103       Cd107   2.093       .  S
O104        C115   1.278       .  A
O104       Cd107   2.088       .  S
Zn105       O116   1.991       .  S
Zn105       O118   2.019       .  S
Zn105       O110   1.946       .  S
O106        C117   1.278       .  A
O106       Cd111   2.097       .  S
Cd107       O109   2.086       .  S
Cd107       O110   2.005       .  S
Cd108       O112   2.071       .  S
Cd108       O121   2.084       .  S
Cd108       O110   2.002       .  S
O109        C119   1.278       .  A
O110       Cd111   2.008       .  S
Cd111       O113   2.069       .  S
O112        C119   1.276       .  A
C114        O118   1.273       .  A
C114        C377   1.477       .  S
C115        C397   1.490       .  S
C117        C448   1.500       .  S
C119        C428   1.483       .  S
C120        O121   1.278       .  A
C120        C488   1.490       .  S
N122        C126   1.352       .  A
N122        C123   1.355       .  A
N122        C477   1.442       .  S
C123        C857   1.484       .  S
C123        C124   1.388       .  A
C124        C125   1.374       .  A
C124        H127   1.083       .  S
C125        C126   1.379       .  A
C125        H128   1.082       .  S
C126        C357   1.474       .  S
O129        C145   1.274       .  A
O129       Zn135   2.031       .  S
C130        O146   1.277       .  A
C130        O143   1.279       .  A
C130        C348   1.480       .  S
O131        C144   1.271       .  A
O131       Cd138   2.058       .  S
O132        C150   1.278       .  A
O132       Cd141   2.104       .  S
O133        C147   1.277       .  A
O133       Cd137   2.085       .  S
O134        C145   1.274       .  A
O134       Cd137   2.084       .  S
Zn135       O146   2.021       .  S
Zn135       O148   2.032       .  S
Zn135       O140   1.944       .  S
O136        C147   1.276       .  A
O136       Cd141   2.082       .  S
Cd137       O139   2.062       .  S
Cd137       O140   2.004       .  S
Cd138       O142   2.049       .  S
Cd138       O151   2.061       .  S
Cd138       O140   1.995       .  S
O139        C149   1.273       .  A
O140       Cd141   2.008       .  S
Cd141       O143   2.079       .  S
O142        C149   1.273       .  A
C144        O148   1.275       .  A
C144        C277   1.472       .  S
C145        C268   1.483       .  S
C147        C308   1.483       .  S
C149        C368   1.482       .  S
C150        O151   1.272       .  A
C150        C328   1.495       .  S
N152        C156   1.358       .  A
N152        C153   1.359       .  A
N152        C297   1.439       .  S
C153        C908   1.481       .  S
C153        C154   1.383       .  A
C154        C155   1.373       .  A
C154        H157   1.082       .  S
C155        C156   1.381       .  A
C155        H158   1.082       .  S
C156        C417   1.481       .  S
N159        C163   1.364       .  A
N159        C160   1.361       .  A
N159        C388   1.440   1_455  S
C160        C888   1.482       .  S
C160        C161   1.380       .  A
C161        C162   1.372       .  A
C161        H164   1.082       .  S
C162        C163   1.383       .  A
C162        H165   1.082       .  S
C163        C257   1.489       .  S
N166        C170   1.350       .  A
N166        C167   1.353       .  A
N166        C337   1.435   1_655  S
C167        C237   1.472   1_655  S
C167        C168   1.384       .  A
C168        C169   1.372       .  A
C168        H171   1.082       .  S
C169        C170   1.379       .  A
C169        H172   1.082       .  S
C170        C457   1.466       .  S
N173        C177   1.358       .  A
N173        C174   1.363       .  A
N173        C437   1.447       .  S
C174        C228   1.484       .  S
C174        C175   1.385       .  A
C175        C176   1.368       .  A
C175        H178   1.082       .  S
C176        C177   1.379       .  A
C176        H179   1.083       .  S
C177        C288   1.475       .  S
N180        C184   1.360   1_545  A
N180        C181   1.361       .  A
N180        C408   1.436       .  S
C181        C208   1.485       .  S
C181        C182   1.382   1_545  A
C182        C183   1.374       .  A
C182        H185   1.082       .  S
C183        C184   1.382       .  A
C183        H186   1.082       .  S
C184        C317   1.490       .  S
C187        H188   1.110       .  S
C187        C193   1.543       .  S
C187        C192   1.546       .  S
C187        C191   1.542       .  S
C189        H190   1.111       .  S
C189        C195   1.527       .  S
C189        C194   1.542       .  S
C189        C196   1.545       .  S
C191        C194   1.378       .  D
C191        C197   1.496   1_455  S
C192        C195   1.373       .  D
C192        C217   1.491       .  S
C193        C196   1.385       .  D
C193        C248   1.493   1_545  S
C194        C508   1.491   1_455  S
C195        C537   1.486       .  S
C196        C528   1.500   1_545  S
C197        C198   1.409       .  A
C197        C202   1.404       .  A
C198        C199   1.408       .  A
C198       Br214   1.914   1_655  S
C199        C200   1.407       .  A
C199        H203   1.082       .  S
C200        C204   1.494       .  S
C200        C201   1.412       .  A
C201        C202   1.402       .  A
C201       Br213   1.920   1_545  S
C202        H205   1.082       .  S
C204        C206   1.404       .  A
C204        C210   1.413       .  A
C206        C207   1.403       .  A
C206        H211   1.083       .  S
C207        C208   1.410       .  A
C207       Br215   1.919       .  S
C208        C209   1.404       .  A
C209        C210   1.406       .  A
C209        H212   1.081       .  S
C210       Br216   1.918       .  S
C217        C218   1.414       .  A
C217        C222   1.402       .  A
C218        C219   1.400       .  A
C218       Br234   1.914       .  S
C219        C220   1.400       .  A
C219        H223   1.083       .  S
C220        C224   1.487       .  S
C220        C221   1.412       .  A
C221        C222   1.402       .  A
C221       Br233   1.919       .  S
C222        H225   1.083       .  S
C224        C226   1.402       .  A
C224        C230   1.411       .  A
C226        C227   1.400       .  A
C226        H231   1.084       .  S
C227        C228   1.413       .  A
C227       Br235   1.920       .  S
C228        C229   1.405       .  A
C229        C230   1.403       .  A
C229        H232   1.084       .  S
C230       Br236   1.918       .  S
C237        C238   1.409   1_455  A
C237        C242   1.403       .  A
C238        C239   1.392   1_655  A
C238       Br254   1.920       .  S
C239        C240   1.398       .  A
C239        H243   1.083   1_455  S
C240        C244   1.472       .  S
C240        C241   1.408       .  A
C241        C242   1.402       .  A
C241       Br253   1.917       .  S
C242        H245   1.083       .  S
C244        C246   1.397       .  A
C244        C250   1.406       .  A
C246        C247   1.400       .  A
C246        H251   1.083       .  S
C247        C248   1.418       .  A
C247       Br255   1.914   1_565  S
C248        C249   1.405       .  A
C249        C250   1.395       .  A
C249        H252   1.082       .  S
C250       Br256   1.919   1_455  S
C257        C258   1.410       .  A
C257        C262   1.406       .  A
C258        C259   1.405       .  A
C258       Br274   1.915       .  S
C259        C260   1.407       .  A
C259        H263   1.083       .  S
C260        C264   1.494       .  S
C260        C261   1.410       .  A
C261        C262   1.401       .  A
C261       Br273   1.920       .  S
C262        H265   1.084       .  S
C264        C266   1.408       .  A
C264        C270   1.413       .  A
C266        C267   1.406       .  A
C266        H271   1.083       .  S
C267        C268   1.410       .  A
C267       Br275   1.918       .  S
C268        C269   1.403       .  A
C269        C270   1.400       .  A
C269        H272   1.084       .  S
C270       Br276   1.921       .  S
C277        C278   1.407       .  A
C277        C282   1.404       .  A
C278        C279   1.399       .  A
C278       Br294   1.918       .  S
C279        C280   1.404       .  A
C279        H283   1.083       .  S
C280        C284   1.480       .  S
C280        C281   1.409       .  A
C281        C282   1.399       .  A
C281       Br293   1.920       .  S
C282        H285   1.083       .  S
C284        C286   1.407       .  A
C284        C290   1.409       .  A
C286        C287   1.404       .  A
C286        H291   1.083       .  S
C287        C288   1.405       .  A
C287       Br295   1.916       .  S
C288        C289   1.402       .  A
C289        C290   1.394       .  A
C289        H292   1.084       .  S
C290       Br296   1.921       .  S
C297        C298   1.407       .  A
C297        C302   1.402   1_545  A
C298        C299   1.404   1_545  A
C298       Br314   1.913       .  S
C299        C300   1.405       .  A
C299        H303   1.083       .  S
C300        C304   1.484       .  S
C300        C301   1.408       .  A
C301        C302   1.399       .  A
C301       Br313   1.918       .  S
C302        H305   1.083       .  S
C304        C306   1.402       .  A
C304        C310   1.409       .  A
C306        C307   1.402       .  A
C306        H311   1.083       .  S
C307        C308   1.413       .  A
C307       Br315   1.920       .  S
C308        C309   1.405       .  A
C309        C310   1.402       .  A
C309        H312   1.083       .  S
C310       Br316   1.918       .  S
C317        C318   1.411       .  A
C317        C322   1.404       .  A
C318        C319   1.400       .  A
C318       Br334   1.919       .  S
C319        C320   1.403       .  A
C319        H323   1.082       .  S
C320        C324   1.491       .  S
C320        C321   1.413       .  A
C321        C322   1.405       .  A
C321       Br333   1.919       .  S
C322        H325   1.076   1_565  S
C324        C326   1.402       .  A
C324        C330   1.411       .  A
C326        C327   1.398       .  A
C326        H331   1.084       .  S
C327        C328   1.419       .  A
C327       Br335   1.924       .  S
C328        C329   1.410       .  A
C329        C330   1.407       .  A
C329        H332   1.083       .  S
C330       Br336   1.918       .  S
C337        C338   1.405       .  A
C337        C342   1.402       .  A
C338        C339   1.400       .  A
C338       Br354   1.914       .  S
C339        C340   1.403       .  A
C339        H343   1.083       .  S
C340        C344   1.476       .  S
C340        C341   1.407       .  A
C341        C342   1.398       .  A
C341       Br353   1.918       .  S
C342        H345   1.083       .  S
C344        C346   1.400       .  A
C344        C350   1.405       .  A
C346        C347   1.399       .  A
C346        H351   1.084       .  S
C347        C348   1.414       .  A
C347       Br355   1.922       .  S
C348        C349   1.406       .  A
C349        C350   1.400       .  A
C349        H352   1.083       .  S
C350       Br356   1.917       .  S
C357        C358   1.407       .  A
C357        C362   1.404       .  A
C358        C359   1.398       .  A
C358       Br374   1.917       .  S
C359        C360   1.404       .  A
C359        H363   1.084       .  S
C360        C364   1.471       .  S
C360        C361   1.407       .  A
C361        C362   1.392       .  A
C361       Br373   1.921       .  S
C362        H365   1.083       .  S
C364        C366   1.399       .  A
C364        C370   1.404       .  A
C366        C367   1.392       .  A
C366        H371   1.084       .  S
C367        C368   1.416       .  A
C367       Br375   1.923       .  S
C368        C369   1.412       .  A
C369        C370   1.398       .  A
C369        H372   1.083       .  S
C370       Br376   1.920       .  S
C377        C378   1.411       .  A
C377        C382   1.404       .  A
C378        C379   1.400       .  A
C378       Br394   1.920       .  S
C379        C380   1.402       .  A
C379        H383   1.084       .  S
C380        C384   1.481       .  S
C380        C381   1.409       .  A
C381        C382   1.402       .  A
C381       Br393   1.918       .  S
C382        H385   1.084       .  S
C384        C386   1.405       .  A
C384        C390   1.408       .  A
C386        C387   1.403       .  A
C386        H391   1.086       .  S
C387        C388   1.407       .  A
C387       Br395   1.915   1_655  S
C388        C389   1.401       .  A
C389        C390   1.397       .  A
C389        H392   1.085       .  S
C390       Br396   1.919       .  S
C397        C398   1.420       .  A
C397        C402   1.407       .  A
C398        C399   1.403       .  A
C398       Br414   1.922       .  S
C399        C400   1.400       .  A
C399        H403   1.084       .  S
C400        C404   1.480       .  S
C400        C401   1.406       .  A
C401        C402   1.399       .  A
C401       Br413   1.920       .  S
C402        H405   1.083       .  S
C404        C406   1.402       .  A
C404        C410   1.408       .  A
C406        C407   1.400       .  A
C406        H411   1.084       .  S
C407        C408   1.407       .  A
C407       Br415   1.916       .  S
C408        C409   1.402       .  A
C409        C410   1.401       .  A
C409        H412   1.083       .  S
C410       Br416   1.917       .  S
C417        C418   1.409       .  A
C417        C422   1.404       .  A
C418        C419   1.396       .  A
C418       Br434   1.920       .  S
C419        C420   1.403       .  A
C419        H423   1.084       .  S
C420        C424   1.488       .  S
C420        C421   1.413       .  A
C421        C422   1.405       .  A
C421       Br433   1.918       .  S
C422        H425   1.083       .  S
C424        C426   1.404       .  A
C424        C430   1.411       .  A
C426        C427   1.402       .  A
C426        H431   1.083       .  S
C427        C428   1.414       .  A
C427       Br435   1.922       .  S
C428        C429   1.404       .  A
C429        C430   1.399       .  A
C429        H432   1.083       .  S
C430       Br436   1.920       .  S
C437        C438   1.413       .  A
C437        C442   1.405       .  A
C438        C439   1.402       .  A
C438       Br454   1.916       .  S
C439        C440   1.403       .  A
C439        H443   1.083       .  S
C440        C444   1.494       .  S
C440        C441   1.412       .  A
C441        C442   1.405       .  A
C441       Br453   1.918       .  S
C442        H445   1.083       .  S
C444        C446   1.404       .  A
C444        C450   1.409       .  A
C446        C447   1.405       .  A
C446        H451   1.084       .  S
C447        C448   1.418       .  A
C447       Br455   1.920       .  S
C448        C449   1.411       .  A
C449        C450   1.404       .  A
C449        H452   1.083       .  S
C450       Br456   1.919       .  S
C457        C458   1.404       .  A
C457        C462   1.401       .  A
C458        C459   1.394       .  A
C458       Br474   1.917       .  S
C459        C460   1.400       .  A
C459        H463   1.084       .  S
C460        C464   1.470       .  S
C460        C461   1.408       .  A
C461        C462   1.397       .  A
C461       Br473   1.919       .  S
C462        H465   1.083       .  S
C464        C466   1.397       .  A
C464        C470   1.406       .  A
C466        C467   1.399       .  A
C466        H471   1.084       .  S
C467        C468   1.423       .  A
C467       Br475   1.924       .  S
C468        C469   1.407       .  A
C469        C470   1.392       .  A
C469        H472   1.083       .  S
C470       Br476   1.922       .  S
C477        C478   1.412       .  A
C477        C482   1.403       .  A
C478        C479   1.396       .  A
C478       Br494   1.919       .  S
C479        C480   1.401       .  A
C479        H483   1.084       .  S
C480        C484   1.488       .  S
C480        C481   1.412       .  A
C481        C482   1.407       .  A
C481       Br493   1.916       .  S
C482        H485   1.082       .  S
C484        C486   1.405       .  A
C484        C490   1.408       .  A
C486        C487   1.404       .  A
C486        H491   1.084       .  S
C487        C488   1.415       .  A
C487       Br495   1.920       .  S
C488        C489   1.407       .  A
C489        C490   1.400       .  A
C489        H492   1.084       .  S
C490       Br496   1.919       .  S
C497        C498   1.409       .  A
C497        C502   1.404       .  A
C498        C499   1.403       .  A
C498       Br514   1.918       .  S
C499        C500   1.404       .  A
C499        H503   1.084       .  S
C500        C504   1.491       .  S
C500        C501   1.412       .  A
C501        C502   1.406       .  A
C501       Br513   1.918       .  S
C502        H505   1.084       .  S
C504        C506   1.404       .  A
C504        C510   1.410       .  A
C506        C507   1.402       .  A
C506        H511   1.084       .  S
C507        C508   1.411       .  A
C507       Br515   1.916   1_545  S
C508        C509   1.405       .  A
C509        C510   1.406       .  A
C509        H512   1.083   1_655  S
C510       Br516   1.917       .  S
C517        C518   1.411   1_455  A
C517        C522   1.403       .  A
C518        C519   1.392       .  A
C518       Br534   1.923       .  S
C519        C520   1.402   1_655  A
C519        H523   1.082       .  S
C520        C524   1.493       .  S
C520        C521   1.418       .  A
C521        C522   1.408       .  A
C521       Br533   1.920       .  S
C522        H525   1.082       .  S
C524        C526   1.404       .  A
C524        C530   1.413       .  A
C526        C527   1.401       .  A
C526        H531   1.083       .  S
C527        C528   1.417       .  A
C527       Br535   1.915       .  S
C528        C529   1.406       .  A
C529        C530   1.398       .  A
C529        H532   1.082       .  S
C530       Br536   1.921   1_455  S
C537        C538   1.407       .  A
C537        C542   1.406       .  A
C538        C539   1.398       .  A
C538       Br554   1.916       .  S
C539        C540   1.403       .  A
C539        H543   1.084       .  S
C540        C544   1.480       .  S
C540        C541   1.406       .  A
C541        C542   1.403       .  A
C541       Br553   1.916       .  S
C542        H545   1.084       .  S
C544        C546   1.402       .  A
C544        C550   1.407       .  A
C546        C547   1.399       .  A
C546        H551   1.084       .  S
C547        C548   1.409       .  A
C547       Br555   1.917       .  S
C548        C549   1.406       .  A
C549        C550   1.403       .  A
C549        H552   1.083       .  S
C550       Br556   1.917       .  S
C557        C558   1.420       .  A
C557        C562   1.410       .  A
C558        C559   1.404       .  A
C558       Br574   1.922       .  S
C559        C560   1.402       .  A
C559        H563   1.084       .  S
C560        C564   1.483       .  S
C560        C561   1.406       .  A
C561        C562   1.399       .  A
C561       Br573   1.919       .  S
C562        H565   1.083       .  S
C564        C566   1.404       .  A
C564        C570   1.408       .  A
C566        C567   1.404       .  A
C566        H571   1.083       .  S
C567        C568   1.411       .  A
C567       Br575   1.916       .  S
C568        C569   1.403       .  A
C569        C570   1.398       .  A
C569        H572   1.084       .  S
C570       Br576   1.920       .  S
C577        C578   1.415       .  A
C577        C582   1.410       .  A
C578        C579   1.400       .  A
C578       Br594   1.921       .  S
C579        C580   1.403       .  A
C579        H583   1.084       .  S
C580        C584   1.478       .  S
C580        C581   1.404       .  A
C581        C582   1.398       .  A
C581       Br593   1.920       .  S
C582        H585   1.083       .  S
C584        C586   1.402       .  A
C584        C590   1.410       .  A
C586        C587   1.397       .  A
C586        H591   1.083       .  S
C587        C588   1.409       .  A
C587       Br595   1.919       .  S
C588        C589   1.401       .  A
C589        C590   1.399       .  A
C589        H592   1.083       .  S
C590       Br596   1.919       .  S
C597        C598   1.408       .  A
C597        C602   1.403   1_545  A
C598        C599   1.395   1_545  A
C598       Br614   1.917       .  S
C599        C600   1.403       .  A
C599        H603   1.084       .  S
C600        C604   1.483       .  S
C600        C601   1.410       .  A
C601        C602   1.401       .  A
C601       Br613   1.918       .  S
C602        H605   1.083   1_565  S
C604        C606   1.404       .  A
C604        C610   1.410       .  A
C606        C607   1.401       .  A
C606        H611   1.083       .  S
C607        C608   1.412       .  A
C607       Br615   1.920       .  S
C608        C609   1.404       .  A
C609        C610   1.396       .  A
C609        H612   1.084       .  S
C610       Br616   1.922       .  S
C617        C618   1.416       .  A
C617        C622   1.407       .  A
C618        C619   1.401       .  A
C618       Br634   1.921       .  S
C619        C620   1.402       .  A
C619        H623   1.083       .  S
C620        C624   1.480       .  S
C620        C621   1.407       .  A
C621        C622   1.399       .  A
C621       Br633   1.920       .  S
C622        H625   1.083       .  S
C624        C626   1.407       .  A
C624        C630   1.407       .  A
C626        C627   1.405       .  A
C626        H631   1.083       .  S
C627        C628   1.405       .  A
C627       Br635   1.913   1_455  S
C628        C629   1.402       .  A
C629        C630   1.395       .  A
C629        H632   1.083       .  S
C630       Br636   1.920       .  S
C637        C638   1.412       .  A
C637        C642   1.408       .  A
C638        C639   1.396       .  A
C638       Br654   1.922       .  S
C639        C640   1.401       .  A
C639        H643   1.084       .  S
C640        C644   1.482       .  S
C640        C641   1.408       .  A
C641        C642   1.406       .  A
C641       Br653   1.917       .  S
C642        H645   1.083       .  S
C644        C646   1.404       .  A
C644        C650   1.408       .  A
C646        C647   1.403       .  A
C646        H651   1.083       .  S
C647        C648   1.409       .  A
C647       Br655   1.916       .  S
C648        C649   1.403       .  A
C649        C650   1.398       .  A
C649        H652   1.083       .  S
C650       Br656   1.919       .  S
C657        C658   1.410       .  A
C657        C662   1.401       .  A
C658        C659   1.394       .  A
C658       Br674   1.921       .  S
C659        C660   1.399       .  A
C659        H663   1.084       .  S
C660        C664   1.475       .  S
C660        C661   1.409       .  A
C661        C662   1.403       .  A
C661       Br673   1.917       .  S
C662        H665   1.083       .  S
C664        C666   1.401       .  A
C664        C670   1.402       .  A
C666        C667   1.402       .  A
C666        H671   1.084       .  S
C667        C668   1.420       .  A
C667       Br675   1.923       .  S
C668        C669   1.410       .  A
C669        C670   1.395       .  A
C669        H672   1.083       .  S
C670       Br676   1.919       .  S
C677        C678   1.418       .  A
C677        C682   1.411       .  A
C678        C679   1.397       .  A
C678       Br694   1.923       .  S
C679        C680   1.398       .  A
C679        H683   1.084       .  S
C680        C684   1.469       .  S
C680        C681   1.401       .  A
C681        C682   1.396       .  A
C681       Br693   1.919       .  S
C682        H685   1.083       .  S
C684        C686   1.400       .  A
C684        C690   1.406       .  A
C686        C687   1.397       .  A
C686        H691   1.083       .  S
C687        C688   1.410       .  A
C687       Br695   1.916       .  S
C688        C689   1.402       .  A
C689        C690   1.394       .  A
C689        H692   1.083       .  S
C690       Br696   1.920       .  S
C697        C698   1.412       .  A
C697        C702   1.403       .  A
C698        C699   1.399       .  A
C698       Br714   1.918       .  S
C699        C700   1.400       .  A
C699        H703   1.083       .  S
C700        C704   1.488       .  S
C700        C701   1.412       .  A
C701        C702   1.408       .  A
C701       Br713   1.916       .  S
C702        H705   1.082       .  S
C704        C706   1.402       .  A
C704        C710   1.408       .  A
C706        C707   1.405       .  A
C706        H711   1.084       .  S
C707        C708   1.419       .  A
C707       Br715   1.922       .  S
C708        C709   1.408       .  A
C709        C710   1.403       .  A
C709        H712   1.083       .  S
C710       Br716   1.918       .  S
C717        C718   1.408       .  A
C717        C722   1.405       .  A
C718        C719   1.408       .  A
C718       Br734   1.912       .  S
C719        C720   1.407       .  A
C719        H723   1.083       .  S
C720        C724   1.493       .  S
C720        C721   1.410       .  A
C721        C722   1.401       .  A
C721       Br733   1.920       .  S
C722        H725   1.083       .  S
C724        C726   1.405       .  A
C724        C730   1.410       .  A
C726        C727   1.406       .  A
C726        H731   1.084       .  S
C727        C728   1.413       .  A
C727       Br735   1.919       .  S
C728        C729   1.406       .  A
C729        C730   1.404       .  A
C729        H732   1.084       .  S
C730       Br736   1.919       .  S
C737        C738   1.411       .  A
C737        C742   1.407       .  A
C738        C739   1.399       .  A
C738       Br754   1.920       .  S
C739        C740   1.403       .  A
C739        H743   1.084       .  S
C740        C744   1.486       .  S
C740        C741   1.410       .  A
C741        C742   1.404       .  A
C741       Br753   1.919       .  S
C742        H745   1.083       .  S
C744        C746   1.404       .  A
C744        C750   1.412       .  A
C746        C747   1.399       .  A
C746        H751   1.084       .  S
C747        C748   1.406       .  A
C747       Br755   1.915   1_655  S
C748        C749   1.401       .  A
C749        C750   1.402       .  A
C749        H752   1.083       .  S
C750       Br756   1.919       .  S
C757        C758   1.405       .  A
C757        C762   1.401       .  A
C758        C759   1.403       .  A
C758       Br774   1.916   1_655  S
C759        C760   1.406       .  A
C759        H763   1.083       .  S
C760        C764   1.483       .  S
C760        C761   1.410       .  A
C761        C762   1.396       .  A
C761       Br773   1.921       .  S
C762        H765   1.084       .  S
C764        C766   1.404       .  A
C764        C770   1.410       .  A
C766        C767   1.400       .  A
C766        H771   1.084       .  S
C767        C768   1.408       .  A
C767       Br775   1.919       .  S
C768        C769   1.403       .  A
C769        C770   1.400       .  A
C769        H772   1.084       .  S
C770       Br776   1.920       .  S
C777        C778   1.418       .  A
C777        C782   1.409       .  A
C778        C779   1.401       .  A
C778       Br794   1.921       .  S
C779        C780   1.401       .  A
C779        H783   1.083       .  S
C780        C784   1.487       .  S
C780        C781   1.409       .  A
C781        C782   1.402       .  A
C781       Br793   1.921       .  S
C782        H785   1.083       .  S
C784        C786   1.403       .  A
C784        C790   1.412       .  A
C786        C787   1.399       .  A
C786        H791   1.083       .  S
C787        C788   1.409       .  A
C787       Br795   1.915       .  S
C788        C789   1.402       .  A
C789        C790   1.403       .  A
C789        H792   1.083       .  S
C790       Br796   1.918       .  S
C797        C798   1.411       .  A
C797        C802   1.408       .  A
C798        C799   1.401       .  A
C798       Br814   1.918       .  S
C799        C800   1.404       .  A
C799        H803   1.084       .  S
C800        C804   1.483       .  S
C800        C801   1.406       .  A
C801        C802   1.402       .  A
C801       Br813   1.917       .  S
C802        H805   1.084       .  S
C804        C806   1.403       .  A
C804        C810   1.408       .  A
C806        C807   1.402       .  A
C806        H811   1.084       .  S
C807        C808   1.410       .  A
C807       Br815   1.918       .  S
C808        C809   1.406       .  A
C809        C810   1.402       .  A
C809        H812   1.082       .  S
C810       Br816   1.918       .  S
C817        C818   1.411       .  A
C817        C822   1.406       .  A
C818        C819   1.405       .  A
C818       Br834   1.915       .  S
C819        C820   1.403       .  A
C819        H823   1.083       .  S
C820        C824   1.485       .  S
C820        C821   1.410       .  A
C821        C822   1.400       .  A
C821       Br833   1.919   1_655  S
C822        H825   1.083   1_655  S
C824        C826   1.402       .  A
C824        C830   1.409       .  A
C826        C827   1.401   1_655  A
C826        H831   1.083       .  S
C827        C828   1.409       .  A
C827       Br835   1.917       .  S
C828        C829   1.404   1_455  A
C829        C830   1.404       .  A
C829        H832   1.083       .  S
C830       Br836   1.915       .  S
C837        C838   1.407       .  A
C837        C842   1.401       .  A
C838        C839   1.397   1_545  A
C838       Br854   1.913       .  S
C839        C840   1.403       .  A
C839        H843   1.084       .  S
C840        C844   1.475       .  S
C840        C841   1.410   1_565  A
C841        C842   1.395       .  A
C841       Br853   1.920       .  S
C842        H845   1.084       .  S
C844        C846   1.400   1_565  A
C844        C850   1.404       .  A
C846        C847   1.393       .  A
C846        H851   1.084       .  S
C847        C848   1.412   1_545  A
C847       Br855   1.914       .  S
C848        C849   1.410       .  A
C849        C850   1.399       .  A
C849        H852   1.083       .  S
C850       Br856   1.917       .  S
C857        C858   1.414       .  A
C857        C862   1.400       .  A
C858        C859   1.393       .  A
C858       Br874   1.925       .  S
C859        C860   1.403       .  A
C859        H863   1.082       .  S
C860        C864   1.498       .  S
C860        C861   1.420       .  A
C861        C862   1.408       .  A
C861       Br873   1.919       .  S
C862        H865   1.083       .  S
C864        C866   1.406       .  A
C864        C870   1.419       .  A
C866        C867   1.398       .  A
C866        H871   1.082       .  S
C867        C868   1.408       .  A
C867       Br875   1.918       .  S
C868        C869   1.402       .  A
C869        C870   1.403       .  A
C869        H872   1.084       .  S
C870       Br876   1.921       .  S
C877        C878   1.415       .  A
C877        C882   1.412       .  A
C878        C879   1.396       .  A
C878       Br894   1.909   1_655  S
C879        C880   1.400       .  A
C879        H883   1.084   1_655  S
C880        C884   1.490       .  S
C880        C881   1.409       .  A
C881        C882   1.407       .  A
C881       Br893   1.917       .  S
C882        H885   1.084       .  S
C884        C886   1.405       .  A
C884        C890   1.412       .  A
C886        C887   1.400       .  A
C886        H891   1.084       .  S
C887        C888   1.409   1_655  A
C887       Br895   1.917   1_655  S
C888        C889   1.405   1_455  A
C889        C890   1.404       .  A
C889        H892   1.084   1_655  S
C890       Br896   1.917       .  S
C897        C898   1.414   1_565  A
C897        C902   1.405       .  A
C898        C899   1.398       .  A
C898       Br914   1.921       .  S
C899        C900   1.401   1_545  A
C899        H903   1.084       .  S
C900        C904   1.484       .  S
C900        C901   1.408       .  A
C901        C902   1.405       .  A
C901       Br913   1.916       .  S
C902        H905   1.083       .  S
C904        C906   1.404       .  A
C904        C910   1.408   1_565  A
C906        C907   1.404   1_565  A
C906        H911   1.083       .  S
C907        C908   1.410       .  A
C907       Br915   1.918   1_545  S
C908        C909   1.403       .  A
C909        C910   1.401       .  A
C909        H912   1.082       .  S
C910       Br916   1.919       .  S
