geometry optimzed in LAMMPS
_audit_creation_date              2020-11-30 
_audit_creation_method            'lammps2cif' 
_symmetry_space_group_name_H-M    'P1' 
_symmetry_Int_Tables_number       1 
_symmetry_cell_setting            triclinic 
loop_ 
_symmetry_equiv_pos_as_xyz 
  x,y,z 
_cell_length_a                    33.15750268 
_cell_length_b                    33.44452541886704 
_cell_length_c                    34.769491060860666 
_cell_angle_alpha                 89.75196493720985 
_cell_angle_beta                  89.70386617768638 
_cell_angle_gamma                 88.99258528919931 
loop_ 
_atom_site_label 
_atom_site_type_symbol 
_atom_site_fract_x 
_atom_site_fract_y 
_atom_site_fract_z 
_atom_site_charge 
C1          C  0.86981051  0.37081766  0.46201743     0.32000
C2          C  0.87012621  0.37058266  0.04145590     0.32000
C3          C  0.87738683  0.33009390  0.48171670    -0.04200
C4          C  0.90061764  0.39759225  0.48118792    -0.05000
C5          C  0.83021521  0.38377670  0.48183531    -0.04800
C6          C  0.87811895  0.33016469  0.02185651    -0.04200
C7          C  0.90067978  0.39819452  0.02128010    -0.05000
C8          C  0.83034776  0.38467292  0.02211232    -0.04800
C9          C  0.88446408  0.29127642  0.03383456    -0.30200
N10         N  0.88713918  0.26772611  0.00219595     0.16300
C11         C  0.88179371  0.29090136  0.47045132    -0.30200
H12         H  0.88134668  0.27972218  0.44132145     0.18200
C13         C  0.92819842  0.42664163  0.03168959    -0.29200
N14         N  0.94575069  0.44153205  0.49937345     0.15000
C15         C  0.92871569  0.42426290  0.46836377    -0.29200
C16         C  0.79204469  0.39673124  0.03341389    -0.29500
N17         N  0.76886253  0.40100519  0.00153538     0.15500
H18         H  0.78152698  0.40192235  0.06251288     0.18100
C19         C  0.79164193  0.39252544  0.47013007    -0.29500
H20         H  0.78041572  0.39172054  0.44099746     0.18100
H21         H  0.93570693  0.43115755  0.43863687     0.18100
H22         H  0.88782204  0.28099229  0.06324125     0.18200
H23         H  0.93514129  0.43594888  0.06060336     0.18100
C24         C  0.87028476  0.37178759  0.21204327     0.32000
C25         C  0.86998039  0.37208190  0.29149449     0.32000
C26         C  0.88029417  0.33203282  0.23181732    -0.04200
C27         C  0.89957716  0.40054576  0.23154073    -0.05000
C28         C  0.83018035  0.38436934  0.23164695    -0.04800
C29         C  0.87952654  0.33164716  0.27192427    -0.04200
C30         C  0.89953861  0.40028247  0.27166806    -0.05000
C31         C  0.82970570  0.38357310  0.27191870    -0.04800
C32         C  0.88735488  0.29267248  0.28299670    -0.30200
N33         N  0.89489278  0.27051721  0.25106623     0.16300
C34         C  0.89024365  0.29419569  0.21963214    -0.30200
H35         H  0.89378483  0.28453753  0.19008207     0.18200
C36         C  0.92627555  0.42851566  0.28358109    -0.29200
N37         N  0.94252061  0.44607162  0.25195324     0.15000
C38         C  0.92589333  0.42969251  0.22018277    -0.29200
C39         C  0.79100343  0.39361007  0.28335125    -0.29500
N40         N  0.76876918  0.40222453  0.25161582     0.15500
H41         H  0.77972325  0.39483864  0.31256954     0.18100
C42         C  0.79252543  0.39729774  0.22005434    -0.29500
H43         H  0.78275116  0.40230123  0.19077638     0.18100
H44         H  0.93269652  0.43833486  0.19092952     0.18100
H45         H  0.88817184  0.28109882  0.31204337     0.18200
H46         H  0.93274879  0.43626563  0.31310622     0.18100
C47         C  0.62362347  0.84780515  0.45920105     0.32000
C48         C  0.62350786  0.84819208  0.03855344     0.32000
C49         C  0.66465497  0.85488985  0.47839923    -0.04200
C50         C  0.59753503  0.88065927  0.47847457    -0.05000
C51         C  0.60916702  0.80986694  0.47928458    -0.04800
C52         C  0.66480267  0.85475171  0.01879110    -0.04200
C53         C  0.59739056  0.88096083  0.01872612    -0.05000
C54         C  0.60899653  0.81010832  0.01927267    -0.04800
C55         C  0.69881533  0.87501524  0.02970869    -0.30200
N56         N  0.71975415  0.88620743  0.49794739     0.16300
C57         C  0.69784558  0.87621937  0.46680935    -0.30200
H58         H  0.70411093  0.88636166  0.43788261     0.18200
C59         C  0.57196194  0.91189728  0.02981880    -0.29200
N60         N  0.55615161  0.92949608  0.49784176     0.15000
C61         C  0.57230727  0.91126701  0.46640509    -0.29200
C62         C  0.59635788  0.77324578  0.03143629    -0.29500
N63         N  0.58910545  0.75073740  0.49990569     0.15500
H64         H  0.59363557  0.76314928  0.06096991     0.18100
C65         C  0.59679227  0.77281701  0.46791025    -0.29500
H66         H  0.59373365  0.76258589  0.43861898     0.18100
H67         H  0.56488275  0.91879987  0.43706466     0.18100
H68         H  0.70683515  0.88236788  0.05890274     0.18200
H69         H  0.56481445  0.92070938  0.05909046     0.18100
C70         C  0.62235197  0.85097318  0.20927822     0.32000
C71         C  0.62292201  0.85250909  0.28861242     0.32000
C72         C  0.66212264  0.86390818  0.22799163    -0.04200
C73         C  0.59231959  0.88053672  0.22859889    -0.05000
C74         C  0.61345672  0.81156930  0.22991314    -0.04800
C75         C  0.66256157  0.86485346  0.26829313    -0.04200
C76         C  0.59252742  0.88127230  0.26885009    -0.05000
C77         C  0.61347021  0.81240997  0.26987264    -0.04800
C78         C  0.69561116  0.88722594  0.27850121    -0.30200
N79         N  0.71584367  0.89803216  0.24610434     0.16300
C80         C  0.69484392  0.88528967  0.21530122    -0.30200
H81         H  0.70211847  0.89259443  0.18572077     0.18200
C82         C  0.56609027  0.91131912  0.28006621    -0.29200
N83         N  0.54933268  0.92809131  0.24816960     0.15000
C84         C  0.56607027  0.91039201  0.21670799    -0.29200
C85         C  0.60147310  0.77539575  0.28259282    -0.29500
N86         N  0.59486034  0.75217103  0.25141953     0.15500
H87         H  0.59711092  0.76621767  0.31220641     0.18100
C88         C  0.60212956  0.77387642  0.21911042    -0.29500
H89         H  0.59797839  0.76341822  0.19001178     0.18100
H90         H  0.56003472  0.91929996  0.18734747     0.18100
H91         H  0.70397349  0.89568371  0.30732620     0.18200
H92         H  0.55926349  0.92026249  0.30928443     0.18100
O93         O  0.90500841  0.94186859  0.47589571    -0.76500
C94         C  0.98393295  0.00198072  0.39656261     0.84600
O95         O  0.03773679  0.91569229  0.02213592    -0.77600
O96         O  0.06626481  0.05168443  0.48153855    -0.79100
O97         O  0.92265882  0.07683560  0.02092512    -0.78900
O98         O  0.88459670  0.98482581  0.02054967    -0.77500
Zn99       Zn  0.96384637  0.95397242  0.46746663     1.55700
O100        O  0.97343873  0.09485362  0.48319564    -0.78900
Cd101      Cd  0.93605034  0.01687140  0.03085697     1.59700
Cd102      Cd  0.02811749  0.97555054  0.03197445     1.59600
O103        O  0.95032414  0.01078265  0.08761721    -0.78900
O104        O  0.98298821  0.99666310  0.49995932    -1.89400
Cd105      Cd  0.00530559  0.04280385  0.47131545     1.59900
O106        O  0.01237435  0.98288319  0.08797002    -0.78800
O107        O  0.99881753  0.03152958  0.41407329    -0.77500
C108        C  0.02329966  0.89137132  0.49799942     0.85000
C109        C  0.87746404  0.95615323  0.49774373     0.84700
O110        O  0.96993279  0.97148744  0.41352213    -0.76400
C111        C  0.94137810  0.10346489  0.50198629     0.85500
O112        O  0.99544260  0.90220722  0.47490396    -0.76500
C113        C  0.98134908  0.99713590  0.10493582     0.85600
C114        C  0.09257553  0.03358876  0.50217328     0.86000
O115        O  0.08297337  0.00383799  0.02312432    -0.79000
O116        O  0.90339947  0.94658976  0.22835405    -0.76500
C117        C  0.98198658  0.99847705  0.14606283     0.84600
O118        O  0.03835290  0.91974781  0.27532544    -0.77600
O119        O  0.06796499  0.04927054  0.22395943    -0.79100
O120        O  0.93017998  0.08114239  0.27176452    -0.78900
O121        O  0.88339426  0.99330050  0.26946145    -0.77500
Zn122      Zn  0.96301882  0.95535647  0.21994120     1.55700
O123        O  0.97810586  0.09621453  0.22951114    -0.78900
Cd124      Cd  0.93788382  0.02067952  0.28114842     1.59700
Cd125      Cd  0.02924808  0.97989841  0.28222397     1.59600
O126        O  0.95159025  0.01289440  0.33807978    -0.78900
O127        O  0.98365554  0.99900168  0.24984450    -1.89400
Cd128      Cd  0.00622263  0.04251848  0.21781829     1.59900
O129        O  0.01580047  0.99068854  0.33822454    -0.78800
O130        O  0.99588040  0.02945544  0.16183893    -0.77500
C131        C  0.02269821  0.89445130  0.25293054     0.85000
C132        C  0.87549723  0.96388016  0.24774212     0.84700
O133        O  0.96957454  0.96835809  0.16472188    -0.76400
C134        C  0.94848345  0.10649561  0.25090498     0.85500
O135        O  0.99382879  0.90418680  0.23055186    -0.76500
C136        C  0.98380304  0.00226799  0.35534203     0.85600
C137        C  0.09409257  0.03273255  0.24586788     0.86000
O138        O  0.08392697  0.00599052  0.26997479    -0.79000
C139        C  0.13506356  0.63702096  0.45484320     0.32000
C140        C  0.13408126  0.63814865  0.03405285     0.32000
C141        C  0.11759104  0.67478954  0.47386587    -0.04200
C142        C  0.11088306  0.60359392  0.47471396    -0.05000
C143        C  0.17651159  0.63137337  0.47462692    -0.04800
C144        C  0.11733150  0.67520133  0.01375645    -0.04200
C145        C  0.11068657  0.60418185  0.01500462    -0.05000
C146        C  0.17578738  0.63226152  0.01520676    -0.04800
C147        C  0.10068638  0.71100203  0.02524931    -0.30200
N148        N  0.09046120  0.73223743  0.49337920     0.16300
C149        C  0.10049993  0.71049502  0.46174444    -0.30200
H150        H  0.09618912  0.72021664  0.43229195     0.18200
C151        C  0.08784870  0.57273662  0.02725952    -0.29200
N152        N  0.07276728  0.55406143  0.49602454     0.15000
C153        C  0.08740454  0.57198939  0.46379892    -0.29200
C154        C  0.20832948  0.60961130  0.02752263    -0.29500
N155        N  0.22971802  0.59664411  0.49682183     0.15500
H156        H  0.21459964  0.60069607  0.05690803     0.18100
C157        C  0.20964999  0.60771950  0.46461716    -0.29500
H158        H  0.21760290  0.59778823  0.43596541     0.18100
H159        H  0.07988001  0.56376798  0.43469698     0.18100
H160        H  0.09618487  0.72094282  0.05457244     0.18200
H161        H  0.08160652  0.56453757  0.05681123     0.18100
C162        C  0.13221562  0.64132711  0.20457578     0.32000
C163        C  0.13408961  0.64081756  0.28393409     0.32000
C164        C  0.11700194  0.67932990  0.22475244    -0.04200
C165        C  0.10740423  0.60864057  0.22472190    -0.05000
C166        C  0.17392465  0.63370137  0.22295144    -0.04800
C167        C  0.11824194  0.67900183  0.26475648    -0.04200
C168        C  0.10832217  0.60854853  0.26497301    -0.05000
C169        C  0.17489716  0.63362291  0.26342182    -0.04800
C170        C  0.10244645  0.71477359  0.27729723    -0.30200
N171        N  0.09123087  0.73652422  0.24606278     0.16300
C172        C  0.09978070  0.71529327  0.21376282    -0.30200
H173        H  0.09389406  0.72532938  0.18466541     0.18200
C174        C  0.08401405  0.57820179  0.27735340    -0.29200
N175        N  0.06785194  0.56034086  0.24620369     0.15000
C176        C  0.08286090  0.57790964  0.21397543    -0.29200
C177        C  0.20879669  0.61175613  0.27379186    -0.29500
N178        N  0.22902913  0.60038452  0.24173258     0.15500
H179        H  0.21722167  0.60263671  0.30258585     0.18100
C180        C  0.20722631  0.61165971  0.21071786    -0.29500
H181        H  0.21443530  0.60315361  0.18144959     0.18100
H182        H  0.07605496  0.56904487  0.18489284     0.18100
H183        H  0.09869121  0.72414970  0.30689240     0.18200
H184        H  0.07727515  0.57056554  0.30690585     0.18100
C185        C  0.35739541  0.12352767  0.03346820     0.32000
C186        C  0.35553051  0.12246739  0.45409475     0.32000
C187        C  0.37003813  0.16175785  0.01283632    -0.04200
C188        C  0.38441822  0.09144724  0.01369998    -0.05000
C189        C  0.31613216  0.11459788  0.01510180    -0.04800
C190        C  0.36887216  0.16135574  0.47288390    -0.04200
C191        C  0.38360657  0.09101962  0.47339154    -0.05000
C192        C  0.31523914  0.11372450  0.47493521    -0.04800
C193        C  0.38320921  0.19747067  0.46018410    -0.30200
N194        N  0.39332554  0.21932661  0.49136485     0.16300
C195        C  0.38556128  0.19779894  0.02365286    -0.30200
H196        H  0.39111333  0.20758859  0.05272906     0.18200
C197        C  0.40919874  0.06044168  0.46164095    -0.29200
N198        N  0.42598709  0.04303287  0.49321469     0.15000
C199        C  0.41021400  0.06090815  0.02502332    -0.29200
C200        C  0.27927154  0.09630473  0.46500601    -0.29500
N201        N  0.25727521  0.08893103  0.49733932     0.15500
H202        H  0.27060145  0.08771007  0.43628989     0.18100
C203        C  0.28019438  0.09889234  0.02804405    -0.29500
H204        H  0.27176943  0.09440980  0.05777137     0.18100
H205        H  0.41778105  0.05260816  0.05419283     0.18100
H206        H  0.38706929  0.20679708  0.43053402     0.18200
H207        H  0.41535427  0.05138397  0.43230566     0.18100
C208        C  0.35379783  0.12649551  0.28331185     0.32000
C209        C  0.35547228  0.12528905  0.20399505     0.32000
C210        C  0.36986299  0.16384722  0.26311426    -0.04200
C211        C  0.37941659  0.09283393  0.26471128    -0.05000
C212        C  0.31272577  0.12022285  0.26338173    -0.04800
C213        C  0.37035493  0.16326200  0.22312606    -0.04200
C214        C  0.38046707  0.09220260  0.22450064    -0.05000
C215        C  0.31371927  0.11961431  0.22295979    -0.04800
C216        C  0.38540398  0.19911081  0.21064961    -0.30200
N217        N  0.39449135  0.22106359  0.24199536     0.16300
C218        C  0.38530347  0.19992956  0.27420215    -0.30200
H219        H  0.38917245  0.21029560  0.30334981     0.18200
C220        C  0.40569966  0.06083870  0.21411668    -0.29200
N221        N  0.42061654  0.04335319  0.24651582     0.15000
C222        C  0.40383192  0.06189853  0.27746279    -0.29200
C223        C  0.27973218  0.09981336  0.21127595    -0.29500
N224        N  0.25724115  0.09008747  0.24248485     0.15500
H225        H  0.27302590  0.09087741  0.18215585     0.18100
C226        C  0.27804412  0.10056571  0.27428681    -0.29500
H227        H  0.26928597  0.09311492  0.30339365     0.18100
H228        H  0.40963600  0.05375067  0.30706204     0.18100
H229        H  0.38964893  0.20854377  0.18107558     0.18200
H230        H  0.41392242  0.05215354  0.18514899     0.18100
O231        O  0.46128403  0.47214744  0.41069084    -0.76500
C232        C  0.45529490  0.37844871  0.49423790     0.84600
O233        O  0.41434229  0.54029272  0.02024280    -0.77600
O234        O  0.50795818  0.45131960  0.08438692    -0.79100
O235        O  0.59053924  0.47341441  0.47322571    -0.78900
O236        O  0.52279961  0.49862943  0.40826407    -0.77500
Zn237      Zn  0.44836398  0.46459013  0.46591124     1.55700
O238        O  0.57572949  0.42786837  0.01743566    -0.78900
Cd239      Cd  0.53781402  0.50448833  0.46422410     1.59700
Cd240      Cd  0.47411707  0.52787209  0.02837928     1.59600
O241        O  0.54977697  0.56388444  0.47438304    -0.78900
O242        O  0.49323340  0.48313172  0.49594593    -1.89400
Cd243      Cd  0.51492644  0.43792217  0.02734124     1.59900
O244        O  0.50503262  0.57952210  0.01955322    -0.78800
O245        O  0.48489674  0.38585909  0.01612127    -0.77500
C246        C  0.38779487  0.52438643  0.49930892     0.85000
C247        C  0.49146314  0.48534648  0.39228155     0.84700
O248        O  0.43869349  0.40592086  0.47404736    -0.76400
C249        C  0.60102934  0.44469295  0.49525908     0.85500
O250        O  0.39667956  0.49501823  0.47749275    -0.76500
C251        C  0.53400716  0.58908102  0.49754233     0.85600
C252        C  0.49483956  0.48249860  0.10147432     0.86000
O253        O  0.48147041  0.51336507  0.08420910    -0.79000
O254        O  0.39696594  0.49946510  0.22240178    -0.76500
C255        C  0.49519499  0.48355512  0.14258616     0.84600
O256        O  0.48445812  0.38829060  0.26604553    -0.77600
O257        O  0.59061447  0.47765507  0.22676195    -0.79100
O258        O  0.50469687  0.58308903  0.27070593    -0.78900
O259        O  0.41337803  0.54450389  0.26596663    -0.77500
Zn260      Zn  0.44842050  0.46663407  0.21527541     1.55700
O261        O  0.54894689  0.56732276  0.22503214    -0.78900
Cd262      Cd  0.47242980  0.53130238  0.27785375     1.59700
Cd263      Cd  0.51394331  0.44077823  0.27755626     1.59600
O264        O  0.47665292  0.51592110  0.33411403    -0.78900
O265        O  0.49248289  0.48611297  0.24608111    -1.89400
Cd266      Cd  0.53776840  0.50752516  0.21531146     1.59900
O267        O  0.50515792  0.45463317  0.33397806    -0.78800
O268        O  0.52520120  0.49919188  0.15891568    -0.77500
C269        C  0.45415352  0.38094596  0.24501326     0.85000
C270        C  0.38777211  0.52946352  0.24336739     0.84700
O271        O  0.46479457  0.47030126  0.16061067    -0.76400
C272        C  0.53373938  0.59249370  0.24858839     0.85500
O273        O  0.43688407  0.40847720  0.22538367    -0.76500
C274        C  0.49058586  0.48509356  0.35118829     0.85600
C275        C  0.60105079  0.44880296  0.24863013     0.86000
O276        O  0.57536343  0.43109134  0.26974788    -0.79000
C277        C  0.38608148  0.29251099  0.22745533     0.25600
C278        C  0.40996770  0.26069672  0.24126824    -0.22500
C279        C  0.44878186  0.26794860  0.25488022     0.20500
C280        C  0.46333833  0.30690378  0.25571210     0.25600
C281        C  0.43900289  0.33943370  0.24312590    -0.22400
C282        C  0.40028796  0.33162634  0.22846260     0.20500
F283        F  0.37575186  0.36176527  0.21577693    -0.12400
F284        F  0.34853056  0.28561450  0.21390546    -0.14800
F285        F  0.50153119  0.31255012  0.26822374    -0.14800
F286        F  0.47280430  0.23703847  0.26667430    -0.12400
C287        C  0.32086537  0.13905952  0.38967761     0.25600
C288        C  0.35533875  0.12514552  0.40977870    -0.22500
C289        C  0.39152879  0.12193966  0.38825851     0.20500
C290        C  0.39117882  0.12401632  0.34789959     0.25600
C291        C  0.35462441  0.12886913  0.32761168    -0.22400
C292        C  0.32041997  0.14063572  0.34936136     0.20500
F293        F  0.28762946  0.15741822  0.33211133    -0.12400
F294        F  0.28855877  0.15470734  0.40879157    -0.14800
F295        F  0.42700764  0.12319644  0.32882518    -0.14800
F296        F  0.42775615  0.11943403  0.40614204    -0.12400
C297        C  0.32515488  0.14321546  0.09807599     0.25600
C298        C  0.35839387  0.12685724  0.07766240    -0.22500
C299        C  0.39419865  0.12059758  0.09885525     0.20500
C300        C  0.39354690  0.12087739  0.13928536     0.25600
C301        C  0.35709653  0.12738665  0.15971982    -0.22400
C302        C  0.32427671  0.14303937  0.13836272     0.20500
F303        F  0.29237079  0.16106636  0.15618719    -0.12400
F304        F  0.29454750  0.16216655  0.07922992    -0.14800
F305        F  0.42916257  0.11770716  0.15817746    -0.14800
F306        F  0.43046035  0.11763332  0.08076815    -0.12400
C307        C  0.46068775  0.30522279  0.51086192     0.25600
C308        C  0.43989209  0.33702507  0.49232600    -0.22500
C309        C  0.40411712  0.32864946  0.47220255     0.20500
C310        C  0.38940728  0.28975257  0.47123391     0.25600
C311        C  0.40973642  0.25864501  0.49055923    -0.22400
C312        C  0.44557154  0.26652566  0.51008089     0.20500
F313        F  0.46625973  0.23645329  0.52794181    -0.12400
F314        F  0.49579157  0.31129886  0.52972775    -0.14800
F315        F  0.35440220  0.28261430  0.45260785    -0.14800
F316        F  0.38273926  0.35806729  0.45404784    -0.12400
C317        C  0.31508378  0.52924624  0.22169942     0.25600
C318        C  0.34663237  0.54768876  0.24179675    -0.22500
C319        C  0.33840848  0.58414746  0.26087491     0.20500
C320        C  0.29979835  0.60111198  0.26049533     0.25600
C321        C  0.26846935  0.58233787  0.24119581    -0.22400
C322        C  0.27630111  0.54659585  0.22137541     0.20500
F323        F  0.24613718  0.52804252  0.20263913    -0.12400
F324        F  0.32142620  0.49421269  0.20285188    -0.14800
F325        F  0.29303960  0.63666550  0.27831460    -0.14800
F326        F  0.36770154  0.60392106  0.27975177    -0.12400
C327        C  0.09791860  0.63833100  0.34959891     0.25600
C328        C  0.13397621  0.64263300  0.32829901    -0.22500
C329        C  0.16847572  0.65361514  0.34911871     0.20500
C330        C  0.16889324  0.65209931  0.38940071     0.25600
C331        C  0.13474930  0.63960404  0.41053853    -0.22400
C332        C  0.09837729  0.63627914  0.38997120     0.20500
F333        F  0.06270809  0.63312748  0.40894033    -0.12400
F334        F  0.06173509  0.63818838  0.33155238    -0.14800
F335        F  0.20184880  0.66634733  0.40737905    -0.14800
F336        F  0.20088373  0.66939716  0.33098294    -0.12400
C337        C  0.09628253  0.63700552  0.09890599     0.25600
C338        C  0.13269365  0.64168223  0.07823445    -0.22500
C339        C  0.16587488  0.65608388  0.09904905     0.20500
C340        C  0.16514329  0.65736107  0.13926337     0.25600
C341        C  0.13135163  0.64402628  0.16029961    -0.22400
C342        C  0.09559960  0.63825215  0.13933335     0.20500
F343        F  0.05951072  0.63599223  0.15768724    -0.12400
F344        F  0.06084060  0.63327034  0.08003880    -0.14800
F345        F  0.19676523  0.67428868  0.15725863    -0.14800
F346        F  0.19821815  0.67179977  0.08073656    -0.12400
C347        C  0.29805362  0.59165202  0.52290388     0.25600
C348        C  0.26823847  0.57660443  0.49872372    -0.22500
C349        C  0.27706288  0.54299483  0.47598281     0.20500
C350        C  0.31561144  0.52528188  0.47668052     0.25600
C351        C  0.34605671  0.54111469  0.50011480    -0.22400
C352        C  0.33642695  0.57416978  0.52375256     0.20500
F353        F  0.36420503  0.59037847  0.54736033    -0.12400
F354        F  0.29045986  0.62456307  0.54467991    -0.14800
F355        F  0.32303231  0.49290152  0.95415756    -0.14800
F356        F  0.24821512  0.52704133  0.95349597    -0.12400
C357        C  0.14967278  0.07236608  0.21496013     0.25600
C358        C  0.13705255  0.04525150  0.24358712    -0.22500
C359        C  0.16586774  0.03103948  0.27041078     0.20500
C360        C  0.20556477  0.04478290  0.26945189     0.25600
C361        C  0.21751395  0.07305702  0.24175226    -0.22400
C362        C  0.18921429  0.08620162  0.21423705     0.20500
F363        F  0.19926397  0.11400667  0.18747649    -0.12400
F364        F  0.12369547  0.08614035  0.18769653    -0.14800
F365        F  0.23239315  0.03005107  0.29547230    -0.14800
F366        F  0.15573473  0.00418178  0.29806347    -0.12400
C367        C  0.01847720  0.82211058  0.23423195     0.28800
C368        C  0.03953429  0.85320298  0.25210519    -0.22500
C369        C  0.07791007  0.84479305  0.26789543     0.20500
C370        C  0.09474181  0.80642535  0.26562657     0.25600
C371        C  0.07389948  0.77586751  0.24745128    -0.22400
C372        C  0.03572296  0.78376769  0.23180308     0.20500
F373        F  0.01481926  0.75402356  0.21507070    -0.12400
F374        F  0.98106256  0.82855980  0.21950533    -0.14800
F375        F  0.13201430  0.79915702  0.28033042    -0.14800
F376        F  0.09981826  0.87379493  0.28471489    -0.12400
C377        C  0.14894100  0.07156253  0.47073948     0.25600
C378        C  0.13526878  0.04733012  0.50123220    -0.22500
C379        C  0.16292263  0.03643610  0.03035191     0.20500
C380        C  0.20296927  0.04948164  0.02893708     0.25600
C381        C  0.21640934  0.07410720  0.49855455    -0.22400
C382        C  0.18865646  0.08502257  0.46962655     0.20500
F383        F  0.19947058  0.10988957  0.44056284    -0.12400
F384        F  0.12397812  0.08211953  0.44143609    -0.14800
F385        F  0.22866685  0.03720483  0.05701977    -0.14800
F386        F  0.15124704  0.01350050  0.06060382    -0.12400
C387        C  0.02030727  0.81937369  0.47654416     0.25600
C388        C  0.04006323  0.84992692  0.49663997    -0.22500
C389        C  0.07676125  0.84058452  0.51531640     0.20500
C390        C  0.09312101  0.80197248  0.51397165     0.25600
C391        C  0.07365968  0.77192890  0.49366351    -0.22400
C392        C  0.03724099  0.78074292  0.47488231     0.20500
F393        F  0.01753870  0.75154729  0.45601920    -0.12400
F394        F  0.98430944  0.82650648  0.45914957    -0.14800
F395        F  0.12863517  0.79396814  0.53191859    -0.14800
F396        F  0.09744911  0.86888348  0.53448699    -0.12400
C397        C  0.51650811  0.98938548  0.27390377     0.25600
C398        C  0.51708728  0.95746352  0.24772041    -0.22500
C399        C  0.48496386  0.95385902  0.22170363     0.20500
C400        C  0.45311501  0.98174213  0.22165333     0.25600
C401        C  0.45253813  0.01367971  0.24773597    -0.22400
C402        C  0.48455513  0.01722158  0.27393434     0.20500
F403        F  0.48577347  0.04851246  0.29861009    -0.12400
F404        F  0.54750722  0.99438748  0.29866666    -0.14800
F405        F  0.42226482  0.97697202  0.19668829    -0.14800
F406        F  0.48368558  0.92253167  0.19709283    -0.12400
C407        C  0.60265304  0.68123640  0.23443168     0.25600
C408        C  0.58037027  0.71203568  0.25218505    -0.22500
C409        C  0.54335578  0.70346999  0.26976461     0.20500
C410        C  0.52828365  0.66467123  0.26888375     0.25600
C411        C  0.55014515  0.63357988  0.25036849    -0.22400
C412        C  0.58788939  0.64231933  0.23362321     0.20500
F413        F  0.61091686  0.61320860  0.21689117    -0.12400
F414        F  0.63914319  0.68890395  0.21842807    -0.14800
F415        F  0.49183996  0.65791861  0.28543966    -0.14800
F416        F  0.52115175  0.73309725  0.28662303    -0.12400
C417        C  0.78558436  0.90005390  0.22160095     0.25600
C418        C  0.75462523  0.91679134  0.24442298    -0.22500
C419        C  0.76266610  0.95088044  0.26633047     0.20500
C420        C  0.80150417  0.96695279  0.26669376     0.25600
C421        C  0.83328213  0.94901764  0.24522638    -0.22400
C422        C  0.82431220  0.91595842  0.22179364     0.20500
F423        F  0.85307455  0.89829967  0.19935152    -0.12400
F424        F  0.77873139  0.86699387  0.20025098    -0.14800
F425        F  0.80785220  0.99994099  0.28829889    -0.14800
F426        F  0.73272856  0.96889965  0.28702621    -0.12400
C427        C  0.49026366  0.95459595  0.02170194     0.25600
C428        C  0.52371417  0.95863705  0.49701300    -0.22500
C429        C  0.52390562  0.99021306  0.47017393     0.20500
C430        C  0.49147729  0.01749278  0.46838751     0.25600
C431        C  0.45817151  0.01358903  0.49333091    -0.22400
C432        C  0.45788442  0.98183140  0.01991117     0.20500
F433        F  0.42573229  0.97664943  0.04360188    -0.12400
F434        F  0.48822985  0.92337501  0.04665344    -0.14800
F435        F  0.49336121  0.04862442  0.44330538    -0.14800
F436        F  0.55599901  0.99523676  0.44634900    -0.12400
C437        C  0.65767012  0.83512841  0.39324134     0.25600
C438        C  0.62295335  0.84561757  0.41491976    -0.22500
C439        C  0.58644693  0.84968626  0.39452027     0.20500
C440        C  0.58628941  0.85169362  0.35415978     0.25600
C441        C  0.62273406  0.85008757  0.33285455    -0.22400
C442        C  0.65765710  0.83769971  0.35301851     0.20500
F443        F  0.69123631  0.82497979  0.33390817    -0.12400
F444        F  0.69082240  0.81894835  0.41040363    -0.14800
F445        F  0.55012502  0.85254799  0.33610087    -0.14800
F446        F  0.55055380  0.84972267  0.41347246    -0.12400
C447        C  0.65674143  0.83370612  0.10426921     0.25600
C448        C  0.62253120  0.84597961  0.08291478    -0.22500
C449        C  0.58593951  0.85028117  0.10360299     0.20500
C450        C  0.58553662  0.85059375  0.14404234     0.25600
C451        C  0.62182862  0.84770039  0.16507703    -0.22400
C452        C  0.65653044  0.83498712  0.14454190     0.20500
F453        F  0.68971369  0.82102364  0.16331059    -0.12400
F454        F  0.68950449  0.81707976  0.08665921    -0.14800
F455        F  0.54932058  0.85104513  0.16238834    -0.14800
F456        F  0.55013955  0.85191443  0.08487733    -0.12400
C457        C  0.59545113  0.68158416  0.47655339     0.25600
C458        C  0.57627121  0.71004227  0.50023714    -0.22500
C459        C  0.54419078  0.69843954  0.02394357     0.20500
C460        C  0.53075811  0.65916073  0.02336852     0.25600
C461        C  0.54929688  0.63050001  0.49898384    -0.22400
C462        C  0.58225662  0.64216287  0.47593987     0.20500
F463        F  0.60193806  0.61560160  0.45278257    -0.12400
F464        F  0.62757618  0.69187774  0.45451640    -0.14800
F465        F  0.49917915  0.64958567  0.04645781    -0.14800
F466        F  0.52490197  0.72555881  0.04677751    -0.12400
C467        C  0.76977401  0.93174671  0.52613776     0.25600
C468        C  0.75852477  0.90517109  0.49700973    -0.22500
C469        C  0.78653317  0.89608551  0.96753136     0.20500
C470        C  0.82482299  0.91298368  0.96733115     0.25600
C471        C  0.83638590  0.93896053  0.49698865    -0.22400
C472        C  0.80823741  0.94810390  0.52633091     0.20500
F473        F  0.81794408  0.97250813  0.55584254    -0.12400
F474        F  0.74340558  0.94265333  0.55429568    -0.14800
F475        F  0.85048112  0.90367395  0.93800608    -0.14800
F476        F  0.77747861  0.86968812  0.93943566    -0.12400
C477        C  0.00399558  0.53373749  0.22165226     0.25600
C478        C  0.03645936  0.53120904  0.24751952    -0.22500
C479        C  0.03660269  0.50112899  0.27594217     0.20500
C480        C  0.00542074  0.47364154  0.27791336     0.25600
C481        C  0.97330891  0.47583089  0.25163299    -0.22400
C482        C  0.97268914  0.50650284  0.22384529     0.20500
F483        F  0.94114128  0.51085717  0.19937791    -0.12400
F484        F  0.00169410  0.56347401  0.19503200    -0.14800
F485        F  0.00750281  0.44401210  0.30465574    -0.14800
F486        F  0.06754124  0.49757124  0.30119709    -0.12400
C487        C  0.88935752  0.20145625  0.27481348     0.25600
C488        C  0.90804869  0.22947390  0.25083519    -0.22500
C489        C  0.94039027  0.21718402  0.22724047     0.20500
C490        C  0.95369952  0.17740324  0.22737982     0.25600
C491        C  0.93482685  0.14895042  0.25122675    -0.22400
C492        C  0.90246700  0.16159372  0.27502244     0.20500
F493        F  0.88313859  0.13552401  0.29846531    -0.12400
F494        F  0.85765364  0.21254265  0.29743922    -0.14800
F495        F  0.98515417  0.16702975  0.20409075    -0.14800
F496        F  0.95992748  0.24399571  0.20477162    -0.12400
C497        C  0.71317992  0.44422359  0.22619745     0.25600
C498        C  0.72686643  0.41394468  0.25123193    -0.22500
C499        C  0.69900179  0.39486565  0.27540566     0.20500
C500        C  0.65813265  0.40587807  0.27461335     0.25600
C501        C  0.64424963  0.43626070  0.24945180    -0.22400
C502        C  0.67246799  0.45526879  0.22524246     0.20500
F503        F  0.66099901  0.48488065  0.20055753    -0.12400
F504        F  0.73943690  0.46395131  0.20317288    -0.14800
F505        F  0.63235699  0.38664867  0.29853766    -0.14800
F506        F  0.71116850  0.36468452  0.29908691    -0.12400
C507        C  0.97713661  0.50287793  0.52321232     0.25600
C508        C  0.97778765  0.46995347  0.49828092    -0.22500
C509        C  0.01052060  0.46480996  0.47268578     0.20500
C510        C  0.04192454  0.49223382  0.47200094     0.25600
C511        C  0.04129401  0.52502832  0.49713663    -0.22400
C512        C  0.00854679  0.53006701  0.52269789     0.20500
F513        F  0.00610673  0.56228689  0.54624402    -0.12400
F514        F  0.94537151  0.50953288  0.54724893    -0.14800
F515        F  0.07339952  0.48624012  0.44746488    -0.14800
F516        F  0.01270023  0.43254871  0.44917023    -0.12400
C517        C  0.89955922  0.34935406  0.39680331     0.25600
C518        C  0.87141409  0.37278669  0.41777229    -0.22500
C519        C  0.85143855  0.40371636  0.39709589     0.20500
C520        C  0.85144740  0.40401650  0.35670984     0.25600
C521        C  0.87185786  0.37370727  0.33574748    -0.22400
C522        C  0.90012789  0.35021300  0.35651377     0.20500
F523        F  0.93112887  0.33119417  0.33825608    -0.12400
F524        F  0.92917825  0.32834552  0.41505275    -0.14800
F525        F  0.83451054  0.43599708  0.33840855    -0.14800
F526        F  0.83478518  0.43562735  0.41564775    -0.12400
C527        C  0.90735862  0.37125412  0.10640060     0.25600
C528        C  0.87098471  0.36801947  0.08574532    -0.22500
C529        C  0.83741619  0.35445875  0.10691798     0.20500
C530        C  0.83748824  0.35470436  0.14728568     0.25600
C531        C  0.87097122  0.36892601  0.16779389    -0.22400
C532        C  0.90732802  0.37185394  0.14675326     0.20500
F533        F  0.94340896  0.37128965  0.16497612    -0.12400
F534        F  0.94350257  0.36967507  0.08799329    -0.14800
F535        F  0.80621380  0.33752999  0.16602011    -0.14800
F536        F  0.80585976  0.33752828  0.08886929    -0.12400
C537        C  0.89340697  0.15811824  0.52538622     0.25600
C538        C  0.92594680  0.14556513  0.50161476    -0.22500
C539        C  0.94427757  0.17411476  0.97749463     0.20500
C540        C  0.93108166  0.21387188  0.97761995     0.25600
C541        C  0.89927754  0.22634364  0.50168046    -0.22400
C542        C  0.88038527  0.19825022  0.52547527     0.20500
F543        F  0.84895082  0.20964603  0.54832682    -0.12400
F544        F  0.87433613  0.13186105  0.54882831    -0.14800
F545        F  0.95044646  0.24068043  0.95501478    -0.14800
F546        F  0.97532728  0.16389908  0.95368607    -0.12400
C547        C  0.65796273  0.40244551  0.52216923     0.25600
C548        C  0.64403512  0.43174620  0.49582727    -0.22500
C549        C  0.67222357  0.45013107  0.97116174     0.20500
C550        C  0.71310419  0.44026347  0.97354200     0.25600
C551        C  0.72690153  0.41187394  0.00042047    -0.22400
C552        C  0.69908964  0.39291981  0.52462479     0.20500
F553        F  0.71166803  0.36436551  0.54991705    -0.12400
F554        F  0.63197895  0.38289380  0.54563486    -0.14800
F555        F  0.73951114  0.45917025  0.95001207    -0.14800
F556        F  0.66055675  0.47793952  0.94469806    -0.12400
C557        C  0.86981769  0.37082095  0.96201760     0.32000
C558        C  0.87011867  0.37058119  0.54145565     0.32000
C559        C  0.87738739  0.33009547  0.98171607    -0.04200
C560        C  0.90062999  0.39758972  0.98118858    -0.05000
C561        C  0.83022460  0.38378607  0.98183606    -0.04800
C562        C  0.87811829  0.33016391  0.52185711    -0.04200
C563        C  0.90066721  0.39819806  0.52127934    -0.05000
C564        C  0.83033801  0.38466433  0.52211165    -0.04800
C565        C  0.88446486  0.29127590  0.53383570    -0.30200
N566        N  0.88714072  0.26772526  0.50219732     0.16300
C567        C  0.88179315  0.29090287  0.97045014    -0.30200
H568        H  0.88134763  0.27972431  0.94132000     0.18200
C569        C  0.92818192  0.42664913  0.53168822    -0.29200
N570        N  0.94576919  0.44152317  0.99937521     0.15000
C571        C  0.92873192  0.42425689  0.96836510    -0.29200
C572        C  0.79203421  0.39672051  0.53341270    -0.29500
N573        N  0.76885237  0.40099285  0.50153387     0.15500
H574        H  0.78151616  0.40191290  0.56251139     0.18100
C575        C  0.79165144  0.39253660  0.97013141    -0.29500
H576        H  0.78042447  0.39173027  0.94099915     0.18100
H577        H  0.93572327  0.43115223  0.93863842     0.18100
H578        H  0.88782140  0.28099196  0.56324260     0.18200
H579        H  0.93512451  0.43595708  0.56060182     0.18100
C580        C  0.87028328  0.37178815  0.71204299     0.32000
C581        C  0.86998122  0.37208420  0.79149429     0.32000
C582        C  0.88029170  0.33203346  0.73181761    -0.04200
C583        C  0.89957715  0.40054577  0.73153910    -0.05000
C584        C  0.83017984  0.38437166  0.73164742    -0.04800
C585        C  0.87952516  0.33164870  0.77192458    -0.04200
C586        C  0.89953992  0.40028322  0.77166642    -0.05000
C587        C  0.82970628  0.38357661  0.77191927    -0.04800
C588        C  0.88735267  0.29267403  0.78299761    -0.30200
N589        N  0.89488927  0.27051786  0.75106747     0.16300
C590        C  0.89023983  0.29419579  0.71963300    -0.30200
H591        H  0.89378033  0.28453703  0.69008310     0.18200
C592        C  0.92627789  0.42851605  0.78357806    -0.29200
N593        N  0.94252216  0.44607114  0.75194937     0.15000
C594        C  0.92589319  0.42969208  0.72017980    -0.29200
C595        C  0.79100444  0.39361491  0.78335237    -0.29500
N596        N  0.76876946  0.40222852  0.75161710     0.15500
H597        H  0.77972501  0.39484464  0.81257086     0.18100
C598        C  0.79252478  0.39729997  0.72005525    -0.29500
H599        H  0.78274967  0.40230193  0.69077721     0.18100
H600        H  0.93269505  0.43833437  0.69092623     0.18100
H601        H  0.88817036  0.28110104  0.81204452     0.18200
H602        H  0.93275235  0.43626647  0.81310283     0.18100
C603        C  0.62362092  0.84780570  0.95920094     0.32000
C604        C  0.62351074  0.84819138  0.53855358     0.32000
C605        C  0.66465218  0.85489074  0.97839921    -0.04200
C606        C  0.59753215  0.88065963  0.97847426    -0.05000
C607        C  0.60916477  0.80986749  0.97928437    -0.04800
C608        C  0.66480553  0.85475074  0.51879109    -0.04200
C609        C  0.59739351  0.88096032  0.51872640    -0.05000
C610        C  0.60899911  0.81010773  0.51927287    -0.04800
C611        C  0.69881932  0.87501235  0.52970870    -0.30200
N612        N  0.71974948  0.88621134  0.99794735     0.16300
C613        C  0.69784143  0.87622218  0.96680940    -0.30200
H614        H  0.70410605  0.88636499  0.93788267     0.18200
C615        C  0.57196490  0.91189680  0.52981921    -0.29200
N616        N  0.55614854  0.92949625  0.99784124     0.15000
C617        C  0.57230421  0.91126709  0.96640464    -0.29200
C618        C  0.59635956  0.77324556  0.53143667    -0.29500
N619        N  0.58910497  0.75073749  0.99990515     0.15500
H620        H  0.59363729  0.76314928  0.56097042     0.18100
C621        C  0.59679147  0.77281721  0.96790981    -0.29500
H622        H  0.59373389  0.76258578  0.93861854     0.18100
H623        H  0.56487947  0.91879963  0.93706409     0.18100
H624        H  0.70683957  0.88236443  0.55890281     0.18200
H625        H  0.56481738  0.92070877  0.55909100     0.18100
C626        C  0.62235238  0.85097201  0.70927828     0.32000
C627        C  0.62292119  0.85250806  0.78861248     0.32000
C628        C  0.66212231  0.86390840  0.72799226    -0.04200
C629        C  0.59231868  0.88053457  0.72859852    -0.05000
C630        C  0.61345804  0.81156785  0.72991316    -0.04800
C631        C  0.66256055  0.86485379  0.76829370    -0.04200
C632        C  0.59252591  0.88127015  0.76884973    -0.05000
C633        C  0.61347095  0.81240863  0.76987268    -0.04800
C634        C  0.69561017  0.88722592  0.77850236    -0.30200
N635        N  0.71584336  0.89803195  0.74610581     0.16300
C636        C  0.69484410  0.88528944  0.71530231    -0.30200
H637        H  0.70211942  0.89259374  0.68572201     0.18200
C638        C  0.56608786  0.91131623  0.78006555    -0.29200
N639        N  0.54933036  0.92808808  0.74816876     0.15000
C640        C  0.56606876  0.91038923  0.71670734    -0.29200
C641        C  0.60147288  0.77539477  0.78259285    -0.29500
N642        N  0.59486007  0.75217010  0.75141957     0.15500
H643        H  0.59710967  0.76621704  0.81220641     0.18100
C644        C  0.60213020  0.77387519  0.71911045    -0.29500
H645        H  0.59797875  0.76341710  0.69001180     0.18100
H646        H  0.56003361  0.91929739  0.68734670     0.18100
H647        H  0.70397215  0.89568348  0.80732748     0.18200
H648        H  0.55926065  0.92025961  0.80928375     0.18100
O649        O  0.90500250  0.94187279  0.97589598    -0.76500
C650        C  0.98393168  0.00197829  0.89656375     0.84600
O651        O  0.03774468  0.91569426  0.52213165    -0.77600
O652        O  0.06626415  0.05168050  0.98153821    -0.79100
O653        O  0.92265697  0.07683319  0.52092409    -0.78900
O654        O  0.88460154  0.98482054  0.52054996    -0.77500
Zn655      Zn  0.96384162  0.95397204  0.96746823     1.55700
O656        O  0.97344037  0.09485446  0.98319568    -0.78900
Cd657      Cd  0.93605278  0.01686977  0.53085662     1.59700
Cd658      Cd  0.02812086  0.97555152  0.53197436     1.59600
O659        O  0.95032702  0.01078262  0.58761696    -0.78900
O660        O  0.98298503  0.99666286  0.99995982    -1.89400
Cd661      Cd  0.00530435  0.04280264  0.97131595     1.59900
O662        O  0.01237621  0.98288091  0.58797066    -0.78800
O663        O  0.99881567  0.03152743  0.91407439    -0.77500
C664        C  0.02328981  0.89136847  0.99800570     0.85000
C665        C  0.87745825  0.95615892  0.99774326     0.84700
O666        O  0.96993116  0.97148504  0.91352319    -0.76400
C667        C  0.94138058  0.10346678  0.00198723     0.85500
O668        O  0.99543354  0.90220459  0.97490944    -0.76500
C669        C  0.98135111  0.99713471  0.60493613     0.85600
C670        C  0.09257475  0.03358358  0.00217209     0.86000
O671        O  0.08297485  0.00384300  0.52312565    -0.79000
O672        O  0.90339878  0.94659123  0.72835520    -0.76500
C673        C  0.98198767  0.99847642  0.64606337     0.84600
O674        O  0.03835254  0.91974955  0.77532696    -0.77600
O675        O  0.06796375  0.04927176  0.72395934    -0.79100
O676        O  0.93018006  0.08114358  0.77176804    -0.78900
O677        O  0.88339354  0.99330155  0.76946302    -0.77500
Zn678      Zn  0.96301833  0.95535742  0.71994249     1.55700
O679        O  0.97810426  0.09621579  0.72951283    -0.78900
Cd680      Cd  0.93788324  0.02068017  0.78115008     1.59700
Cd681      Cd  0.02924765  0.97989995  0.78222488     1.59600
O682        O  0.95158926  0.01289226  0.83808104    -0.78900
O683        O  0.98365480  0.99900287  0.74984558    -1.89400
Cd684      Cd  0.00622120  0.04251976  0.71781900     1.59900
O685        O  0.01580021  0.99068864  0.83822568    -0.78800
O686        O  0.99587932  0.02945588  0.66183944    -0.77500
C687        C  0.02269694  0.89445253  0.75293327     0.85000
C688        C  0.87549658  0.96388125  0.74774365     0.84700
O689        O  0.96957621  0.96835734  0.66472268    -0.76400
C690        C  0.94848282  0.10649689  0.75090796     0.85500
O691        O  0.99382716  0.90418771  0.73055494    -0.76500
C692        C  0.98380213  0.00226609  0.85534323     0.85600
C693        C  0.09409165  0.03273374  0.74586743     0.86000
O694        O  0.08392629  0.00599207  0.76997484    -0.79000
C695        C  0.13506729  0.63702574  0.95484339     0.32000
C696        C  0.13407567  0.63814692  0.53405257     0.32000
C697        C  0.11758850  0.67479084  0.97386782    -0.04200
C698        C  0.11089310  0.60359367  0.97471365    -0.05000
C699        C  0.17651700  0.63138465  0.97462610    -0.04800
C700        C  0.11733310  0.67520183  0.51375449    -0.04200
C701        C  0.11067527  0.60418360  0.51500494    -0.05000
C702        C  0.17578113  0.63225165  0.51520741    -0.04800
C703        C  0.10069301  0.71100552  0.52524529    -0.30200
N704        N  0.09045071  0.73223420  0.99338455     0.16300
C705        C  0.10049185  0.71049472  0.96174848    -0.30200
H706        H  0.09617996  0.72021769  0.93229660     0.18200
C707        C  0.08783377  0.57274101  0.52726010    -0.29200
N708        N  0.07278261  0.55405672  0.99602398     0.15000
C709        C  0.08741688  0.57198732  0.96379839    -0.29200
C710        C  0.20832001  0.60959789  0.52752471    -0.29500
N711        N  0.22972866  0.59666106  0.99681912     0.15500
H712        H  0.21458978  0.60068456  0.55691067     0.18100
C713        C  0.20965833  0.60773505  0.96461524    -0.29500
H714        H  0.21761089  0.59780444  0.93596325     0.18100
H715        H  0.07989092  0.56376703  0.93469646     0.18100
H716        H  0.09619114  0.72094801  0.55456784     0.18200
H717        H  0.08159055  0.56454283  0.55681174     0.18100
C718        C  0.13221468  0.64132953  0.70457518     0.32000
C719        C  0.13408803  0.64081852  0.78393360     0.32000
C720        C  0.11700077  0.67933193  0.72475246    -0.04200
C721        C  0.10740340  0.60864270  0.72472052    -0.05000
C722        C  0.17392365  0.63370334  0.72295097    -0.04800
C723        C  0.11824055  0.67900305  0.76475652    -0.04200
C724        C  0.10832074  0.60854975  0.76497167    -0.05000
C725        C  0.17489569  0.63362439  0.76342143    -0.04800
C726        C  0.10244514  0.71477450  0.77729796    -0.30200
N727        N  0.09122980  0.73652585  0.74606395     0.16300
C728        C  0.09977968  0.71529562  0.71376353    -0.30200
H729        H  0.09389317  0.72533240  0.68466636     0.18200
C730        C  0.08401338  0.57820178  0.77735070    -0.29200
N731        N  0.06785260  0.56034115  0.74620007     0.15000
C732        C  0.08286141  0.57791144  0.71397261    -0.29200
C733        C  0.20879494  0.61175751  0.77379184    -0.29500
N734        N  0.22902747  0.60038556  0.74173281     0.15500
H735        H  0.21721969  0.60263835  0.80258604     0.18100
C736        C  0.20722506  0.61166087  0.71071783    -0.29500
H737        H  0.21443416  0.60315419  0.68144973     0.18100
H738        H  0.07605649  0.56904743  0.68488958     0.18100
H739        H  0.09868973  0.72414991  0.80689336     0.18200
H740        H  0.07727446  0.57056412  0.80690279     0.18100
C741        C  0.35739815  0.12352825  0.53346847     0.32000
C742        C  0.35552765  0.12246669  0.95409449     0.32000
C743        C  0.37003915  0.16175893  0.51283674    -0.04200
C744        C  0.38442228  0.09144888  0.51370022    -0.05000
C745        C  0.31613543  0.11459690  0.51510202    -0.04800
C746        C  0.36887106  0.16135461  0.97288348    -0.04200
C747        C  0.38360230  0.09101785  0.97339133    -0.05000
C748        C  0.31523590  0.11372554  0.97493488    -0.04800
C749        C  0.38320955  0.19746904  0.96018358    -0.30200
N750        N  0.39332694  0.21932476  0.99136421     0.16300
C751        C  0.38556072  0.19780054  0.52365346    -0.30200
H752        H  0.39111243  0.20759033  0.55272966     0.18200
C753        C  0.40919391  0.06043958  0.96164068    -0.29200
N754        N  0.42598238  0.04303083  0.99321432     0.15000
C755        C  0.41021821  0.06090988  0.52502361    -0.29200
C756        C  0.27926978  0.09630282  0.96500573    -0.29500
N757        N  0.25727381  0.08892770  0.99733886     0.15500
H758        H  0.27060062  0.08770687  0.93628963     0.18100
C759        C  0.28019644  0.09889450  0.52804442    -0.29500
H760        H  0.27177088  0.09441367  0.55777183     0.18100
H761        H  0.41778465  0.05260941  0.55419316     0.18100
H762        H  0.38706977  0.20679525  0.93053342     0.18200
H763        H  0.41534941  0.05138192  0.93230525     0.18100
C764        C  0.35379717  0.12649367  0.78331140     0.32000
C765        C  0.35547276  0.12528876  0.70399471     0.32000
C766        C  0.36986256  0.16384587  0.76311474    -0.04200
C767        C  0.37941630  0.09283249  0.76471060    -0.05000
C768        C  0.31272544  0.12022121  0.76338057    -0.04800
C769        C  0.37035507  0.16326137  0.72312656    -0.04200
C770        C  0.38046725  0.09220190  0.72449999    -0.05000
C771        C  0.31371943  0.11961362  0.72295865    -0.04800
C772        C  0.38540410  0.19911046  0.71065088    -0.30200
N773        N  0.39449094  0.22106282  0.74199705     0.16300
C774        C  0.38530274  0.19992816  0.77420340    -0.30200
H775        H  0.38917122  0.21029376  0.80335130     0.18200
C776        C  0.40569949  0.06083784  0.71411568    -0.29200
N777        N  0.42061586  0.04335159  0.74651463     0.15000
C778        C  0.40383121  0.06189660  0.77746179    -0.29200
C779        C  0.27973214  0.09981349  0.71127383    -0.29500
N780        N  0.25724086  0.09008670  0.74248234     0.15500
H781        H  0.27302596  0.09087868  0.68215345     0.18100
C782        C  0.27804365  0.10056387  0.77428472    -0.29500
H783        H  0.26928518  0.09311218  0.80339143     0.18100
H784        H  0.40963491  0.05374813  0.80706098     0.18100
H785        H  0.38964934  0.20854392  0.68107705     0.18200
H786        H  0.41392227  0.05215297  0.68514792     0.18100
O787        O  0.46128559  0.47214554  0.91069296    -0.76500
C788        C  0.45529953  0.37844662  0.99423869     0.84600
O789        O  0.41433490  0.54028936  0.52024132    -0.77600
O790        O  0.50795244  0.45132368  0.58438708    -0.79100
O791        O  0.59054508  0.47341651  0.97322516    -0.78900
O792        O  0.52280178  0.49862611  0.90826376    -0.77500
Zn793      Zn  0.44836703  0.46458954  0.96591416     1.55700
O794        O  0.57572174  0.42786708  0.51743627    -0.78900
Cd795      Cd  0.53781792  0.50448747  0.96422306     1.59700
Cd796      Cd  0.47411040  0.52787385  0.52837763     1.59600
O797        O  0.54977894  0.56388470  0.97437924    -0.78900
O798        O  0.49323862  0.48313017  0.99594659    -1.89400
Cd799      Cd  0.51491968  0.43792452  0.52734209     1.59900
O800        O  0.50502382  0.57952531  0.51954991    -0.78800
O801        O  0.48488880  0.38586245  0.51612397    -0.77500
C802        C  0.38780130  0.52439119  0.99931051     0.85000
C803        C  0.49146436  0.48534369  0.89228247     0.84700
O804        O  0.43869529  0.40592016  0.97405180    -0.76400
C805        C  0.60103653  0.44469571  0.99525884     0.85500
O806        O  0.39668418  0.49502135  0.97749565    -0.76500
C807        C  0.53401218  0.58907966  0.99754195     0.85600
C808        C  0.49483404  0.48250292  0.60147410     0.86000
O809        O  0.48146454  0.51336902  0.58420840    -0.79000
O810        O  0.39696358  0.49946498  0.72240492    -0.76500
C811        C  0.49519020  0.48355939  0.64258601     0.84600
O812        O  0.48445806  0.38829050  0.76604459    -0.77600
O813        O  0.59061325  0.47765618  0.72676070    -0.79100
O814        O  0.50469580  0.58308858  0.77070804    -0.78900
O815        O  0.41337614  0.54450425  0.76596919    -0.77500
Zn816      Zn  0.44841825  0.46663470  0.71527633     1.55700
O817        O  0.54894425  0.56732289  0.72503261    -0.78900
Cd818      Cd  0.47242828  0.53130197  0.77785557     1.59700
Cd819      Cd  0.51394268  0.44077829  0.77755585     1.59600
O820        O  0.47665210  0.51591906  0.83411566    -0.78900
O821        O  0.49248119  0.48611327  0.74608159    -1.89400
Cd822      Cd  0.53776617  0.50752568  0.71531111     1.59900
O823        O  0.50515753  0.45463137  0.83397809    -0.78800
O824        O  0.52519740  0.49919469  0.65891522    -0.77500
C825        C  0.45415311  0.38094570  0.74501283     0.85000
C826        C  0.38776994  0.52946357  0.74337037     0.84700
O827        O  0.46479031  0.47030502  0.66061104    -0.76400
C828        C  0.53373760  0.59249347  0.74858966     0.85500
O829        O  0.43688309  0.40847695  0.72538360    -0.76500
C830        C  0.49058548  0.48509121  0.85118917     0.85600
C831        C  0.60105023  0.44880496  0.74862974     0.86000
O832        O  0.57536316  0.43109323  0.76974776    -0.79000
C833        C  0.38608124  0.29251011  0.72745609     0.25600
C834        C  0.40996697  0.26069616  0.74127048    -0.22500
C835        C  0.44878064  0.26794848  0.75488351     0.20500
C836        C  0.46333724  0.30690368  0.75571448     0.25600
C837        C  0.43900246  0.33943327  0.74312623    -0.22400
C838        C  0.40028783  0.33162548  0.72846242     0.20500
F839        F  0.37575207  0.36176403  0.71577536    -0.12400
F840        F  0.34853063  0.28561329  0.71390559    -0.14800
F841        F  0.50152955  0.31255031  0.76822750    -0.14800
F842        F  0.47280259  0.23703872  0.76667939    -0.12400
C843        C  0.32086279  0.13905711  0.88967669     0.25600
C844        C  0.35533620  0.12514422  0.90977840    -0.22500
C845        C  0.39152646  0.12193785  0.88825861     0.20500
C846        C  0.39117700  0.12401387  0.84789968     0.25600
C847        C  0.35462290  0.12886662  0.82761126    -0.22400
C848        C  0.32041800  0.14063293  0.84936044     0.20500
F849        F  0.28762753  0.15741497  0.83210994    -0.12400
F850        F  0.28855547  0.15470432  0.90878998    -0.14800
F851        F  0.42700609  0.12319354  0.82882574    -0.14800
F852        F  0.42775357  0.11943202  0.90614257    -0.12400
C853        C  0.32515743  0.14321723  0.59807573     0.25600
C854        C  0.35839624  0.12685800  0.57766257    -0.22500
C855        C  0.39420072  0.12059798  0.59885573     0.20500
C856        C  0.39354842  0.12087756  0.63928576     0.25600
C857        C  0.35709781  0.12738710  0.65971970    -0.22400
C858        C  0.32427872  0.14304100  0.63836243     0.20500
F859        F  0.29237315  0.16106875  0.65618678    -0.12400
F860        F  0.29455080  0.16216912  0.57922928    -0.14800
F861        F  0.42916381  0.11770700  0.65817829    -0.14800
F862        F  0.43046269  0.11763409  0.58076909    -0.12400
C863        C  0.46069081  0.30521998  0.01086244     0.25600
C864        C  0.43989606  0.33702289  0.99232645    -0.22500
C865        C  0.40412128  0.32864779  0.97220237     0.20500
C866        C  0.38941075  0.28975107  0.97123321     0.25600
C867        C  0.40973895  0.25864291  0.99055859    -0.22400
C868        C  0.44557397  0.26652296  0.01008076     0.20500
F869        F  0.46626143  0.23645009  0.02794167    -0.12400
F870        F  0.49579413  0.31129536  0.02972932    -0.14800
F871        F  0.35440584  0.28261363  0.95260655    -0.14800
F872        F  0.38274430  0.35806595  0.95404723    -0.12400
C873        C  0.31508084  0.52924433  0.72170494     0.25600
C874        C  0.34663019  0.54768885  0.74179949    -0.22500
C875        C  0.33840722  0.58414983  0.76087393     0.20500
C876        C  0.29979723  0.60111478  0.76049337     0.25600
C877        C  0.26846758  0.58233877  0.74119655    -0.22400
C878        C  0.27629836  0.54659436  0.72137992     0.20500
F879        F  0.24613368  0.52803926  0.70264642    -0.12400
F880        F  0.32142233  0.49420841  0.70286120    -0.14800
F881        F  0.29303914  0.63667040  0.77830900    -0.14800
F882        F  0.36770112  0.60392530  0.77974776    -0.12400
C883        C  0.09791877  0.63833040  0.84959978     0.25600
C884        C  0.13397544  0.64263400  0.82829866    -0.22500
C885        C  0.16847464  0.65361972  0.84911710     0.20500
C886        C  0.16889338  0.65210619  0.88939916     0.25600
C887        C  0.13475108  0.63960951  0.91053856    -0.22400
C888        C  0.09837877  0.63628084  0.88997229     0.20500
F889        F  0.06271047  0.63312733  0.90894269    -0.12400
F890        F  0.06173481  0.63818444  0.83155427    -0.14800
F891        F  0.20184817  0.66635816  0.90737575    -0.14800
F892        F  0.20088134  0.66940248  0.83097974    -0.12400
C893        C  0.09627789  0.63700946  0.59890653     0.25600
C894        C  0.13268889  0.64168229  0.57823397    -0.22500
C895        C  0.16587202  0.65608179  0.59904722     0.20500
C896        C  0.16514196  0.65735997  0.63926150     0.25600
C897        C  0.13134972  0.64402875  0.66029900    -0.22400
C898        C  0.09559641  0.63825709  0.63933390     0.20500
F899        F  0.05950800  0.63599949  0.65768906    -0.12400
F900        F  0.06083498  0.63327700  0.58004041    -0.14800
F901        F  0.19676600  0.67428537  0.65725531    -0.14800
F902        F  0.19821625  0.67179405  0.58073325    -0.12400
C903        C  0.29806254  0.59166090  0.02290603     0.25600
C904        C  0.26824870  0.57661980  0.99872028    -0.22500
C905        C  0.27707355  0.54301357  0.97597475     0.20500
C906        C  0.31562070  0.52529758  0.97667378     0.25600
C907        C  0.34606436  0.54112321  0.00011453    -0.22400
C908        C  0.33643443  0.57417507  0.02375644     0.20500
F909        F  0.36421089  0.59037662  0.04737063    -0.12400
F910        F  0.29046896  0.62456869  0.04468665    -0.14800
F911        F  0.32302271  0.49288166  0.45416970    -0.14800
F912        F  0.24820286  0.52701697  0.45350965    -0.12400
C913        C  0.14967171  0.07236712  0.71495888     0.25600
C914        C  0.13705181  0.04525203  0.74358561    -0.22500
C915        C  0.16586768  0.03103847  0.77040787     0.20500
C916        C  0.20556491  0.04478118  0.76944824     0.25600
C917        C  0.21751369  0.07305620  0.74174933    -0.22400
C918        C  0.18921353  0.08620196  0.71423508     0.20500
F919        F  0.19926302  0.11400752  0.68747494    -0.12400
F920        F  0.12369376  0.08614259  0.68769637    -0.14800
F921        F  0.23239392  0.03004785  0.79546730    -0.14800
F922        F  0.15573518  0.00417991  0.79805995    -0.12400
C923        C  0.01847589  0.82211202  0.73423433     0.28800
C924        C  0.03953254  0.85320406  0.75210862    -0.22500
C925        C  0.07790773  0.84479374  0.76790001     0.20500
C926        C  0.09473972  0.80642622  0.76563039     0.25600
C927        C  0.07389814  0.77586894  0.74745340    -0.22400
C928        C  0.03572188  0.78376933  0.73180480     0.20500
F929        F  0.01481866  0.75402556  0.71507125    -0.12400
F930        F  0.98106157  0.82856144  0.71950706    -0.14800
F931        F  0.13201180  0.79915761  0.78033508    -0.14800
F932        F  0.09981517  0.87379503  0.78472132    -0.12400
C933        C  0.14894020  0.07155740  0.97073855     0.25600
C934        C  0.13526841  0.04732382  0.00123055    -0.22500
C935        C  0.16292251  0.03644358  0.53035430     0.20500
C936        C  0.20296936  0.04948823  0.52893906     0.25600
C937        C  0.21640854  0.07410225  0.99855353    -0.22400
C938        C  0.18865540  0.08501803  0.96962593     0.20500
F939        F  0.19946892  0.10988639  0.94056309    -0.12400
F940        F  0.12397699  0.08211538  0.94143572    -0.14800
F941        F  0.22866652  0.03721177  0.55702222    -0.14800
F942        F  0.15124634  0.01350969  0.56060720    -0.12400
C943        C  0.02029466  0.81936998  0.97655336     0.25600
C944        C  0.04005110  0.84992309  0.99664890    -0.22500
C945        C  0.07674847  0.84058005  0.01532623     0.20500
C946        C  0.09310837  0.80196816  0.01398065     0.25600
C947        C  0.07364753  0.77192504  0.99367137    -0.22400
C948        C  0.03722837  0.78073916  0.97489098     0.20500
F949        F  0.01752609  0.75154382  0.95602747    -0.12400
F950        F  0.98429682  0.82650319  0.95915894    -0.14800
F951        F  0.12862273  0.79396379  0.03192722    -0.14800
F952        F  0.09743605  0.86887838  0.03449798    -0.12400
C953        C  0.51650654  0.98938260  0.77390258     0.25600
C954        C  0.51708531  0.95746060  0.74771931    -0.22500
C955        C  0.48496207  0.95385659  0.72170227     0.20500
C956        C  0.45311367  0.98174028  0.72165173     0.25600
C957        C  0.45253708  0.01367774  0.74773456    -0.22400
C958        C  0.48455403  0.01721914  0.77393300     0.20500
F959        F  0.48577281  0.04851005  0.79860867    -0.12400
F960        F  0.54750568  0.99438422  0.79866552    -0.14800
F961        F  0.42226369  0.97697088  0.69668631    -0.14800
F962        F  0.48368355  0.92252925  0.69709145    -0.12400
C963        C  0.60265131  0.68123563  0.73443110     0.25600
C964        C  0.58036934  0.71203502  0.75218512    -0.22500
C965        C  0.54335524  0.70346961  0.76976564     0.20500
C966        C  0.52828284  0.66467094  0.76888524     0.25600
C967        C  0.55014364  0.63357948  0.75036947    -0.22400
C968        C  0.58788738  0.64231873  0.73362301     0.20500
F969        F  0.61091408  0.61320797  0.71689009    -0.12400
F970        F  0.63914105  0.68890294  0.71842648    -0.14800
F971        F  0.49183951  0.65791851  0.78544196    -0.14800
F972        F  0.52115183  0.73309701  0.78662455    -0.12400
C973        C  0.78558429  0.90005397  0.72160306     0.25600
C974        C  0.75462500  0.91679107  0.74442511    -0.22500
C975        C  0.76266577  0.95087987  0.76633313     0.20500
C976        C  0.80150374  0.96695252  0.76669648     0.25600
C977        C  0.83328164  0.94901815  0.74522842    -0.22400
C978        C  0.82431194  0.91595892  0.72179563     0.20500
F979        F  0.85307435  0.89830055  0.69935331    -0.12400
F980        F  0.77873166  0.86699387  0.70025308    -0.14800
F981        F  0.80785171  0.99994023  0.78830233    -0.14800
F982        F  0.73272822  0.96889858  0.78702928    -0.12400
C983        C  0.49026684  0.95459664  0.52170220     0.25600
C984        C  0.52371070  0.95863670  0.99701246    -0.22500
C985        C  0.52390148  0.99021246  0.97017313     0.20500
C986        C  0.49147265  0.01749155  0.96838663     0.25600
C987        C  0.45816717  0.01358746  0.99333037    -0.22400
C988        C  0.45788801  0.98183266  0.51991140     0.20500
F989        F  0.42573551  0.97665087  0.54360169    -0.12400
F990        F  0.48823231  0.92337548  0.54665338    -0.14800
F991        F  0.49335581  0.04862293  0.94330414    -0.14800
F992        F  0.55599469  0.99523657  0.94634807    -0.12400
C993        C  0.65766846  0.83512901  0.89324170     0.25600
C994        C  0.62295127  0.84561779  0.91491971    -0.22500
C995        C  0.58644496  0.84968541  0.89451992     0.20500
C996        C  0.58628777  0.85169206  0.85415941     0.25600
C997        C  0.62273268  0.85008672  0.83285455    -0.22400
C998        C  0.65765575  0.83769974  0.85301888     0.20500
F999        F  0.69123533  0.82498008  0.83390895    -0.12400
F1000       F  0.69082099  0.81894996  0.91040442    -0.14800
F1001       F  0.55012357  0.85254492  0.83610014    -0.14800
F1002       F  0.55055170  0.84972146  0.91347187    -0.12400
C1003       C  0.65674367  0.83370535  0.60426976     0.25600
C1004       C  0.62253374  0.84597886  0.58291490    -0.22500
C1005       C  0.58594169  0.85027999  0.60360258     0.20500
C1006       C  0.58553810  0.85059227  0.64404189     0.25600
C1007       C  0.62182977  0.84769922  0.66507711    -0.22400
C1008       C  0.65653201  0.83498620  0.64454249     0.20500
F1009       F  0.68971496  0.82102280  0.66331172    -0.12400
F1010       F  0.68950687  0.81707879  0.58666020    -0.14800
F1011       F  0.54932173  0.85104281  0.66238728    -0.14800
F1012       F  0.55014202  0.85191297  0.58487640    -0.12400
C1013       C  0.59545536  0.68158381  0.97655527     0.25600
C1014       C  0.57627203  0.71004210  0.00023638    -0.22500
C1015       C  0.54419216  0.69843960  0.52394723     0.20500
C1016       C  0.53075825  0.65916112  0.52337226     0.25600
C1017       C  0.54930050  0.63049910  0.99898314    -0.22400
C1018       C  0.58226228  0.64216199  0.97594190     0.20500
F1019       F  0.60194735  0.61560015  0.95278793    -0.12400
F1020       F  0.62758224  0.69187782  0.95452092    -0.14800
F1021       F  0.49918225  0.64958572  0.54646513    -0.14800
F1022       F  0.52490664  0.72555838  0.54678415    -0.12400
C1023       C  0.76976784  0.93175281  0.02613691     0.25600
C1024       C  0.75851929  0.90517642  0.99700929    -0.22500
C1025       C  0.78653876  0.89607954  0.46753201     0.20500
C1026       C  0.82482917  0.91297668  0.46733226     0.25600
C1027       C  0.83637950  0.93896767  0.99698748    -0.22400
C1028       C  0.80823082  0.94811114  0.02632959     0.20500
F1029       F  0.81793702  0.97251619  0.05584072    -0.12400
F1030       F  0.74339930  0.94265867  0.05429501    -0.14800
F1031       F  0.85048749  0.90366637  0.43800751    -0.14800
F1032       F  0.77748353  0.86968289  0.43943587    -0.12400
C1033       C  0.00399795  0.53373584  0.72164659     0.25600
C1034       C  0.03646142  0.53120788  0.74751428    -0.22500
C1035       C  0.03660562  0.50112701  0.77593605     0.20500
C1036       C  0.00542393  0.47363936  0.77790714     0.25600
C1037       C  0.97331138  0.47582941  0.75162765    -0.22400
C1038       C  0.97269159  0.50650113  0.72383969     0.20500
F1039       F  0.94114364  0.51085552  0.69937242    -0.12400
F1040       F  0.00169647  0.56347212  0.69502605    -0.14800
F1041       F  0.00750668  0.44400924  0.80464877    -0.14800
F1042       F  0.06754465  0.49756893  0.80119040    -0.12400
C1043       C  0.88935666  0.20145742  0.77481721     0.25600
C1044       C  0.90804599  0.22947474  0.75083716    -0.22500
C1045       C  0.94038706  0.21718485  0.72724181     0.20500
C1046       C  0.95369742  0.17740443  0.72738203     0.25600
C1047       C  0.93482616  0.14895177  0.75123019    -0.22400
C1048       C  0.90246714  0.16159514  0.77502689     0.20500
F1049       F  0.88314040  0.13552570  0.79847134    -0.12400
F1050       F  0.85765352  0.21254381  0.79744389    -0.14800
F1051       F  0.98515166  0.16703109  0.70409242    -0.14800
F1052       F  0.95992268  0.24399624  0.70477134    -0.12400
C1053       C  0.71317994  0.44422714  0.72619840     0.25600
C1054       C  0.72686671  0.41394890  0.75123353    -0.22500
C1055       C  0.69900222  0.39487043  0.77540782     0.20500
C1056       C  0.65813293  0.40588238  0.77461507     0.25600
C1057       C  0.64424949  0.43626385  0.74945237    -0.22400
C1058       C  0.67246784  0.45527194  0.72524301     0.20500
F1059       F  0.66099868  0.48488337  0.70055770    -0.12400
F1060       F  0.73943684  0.46395443  0.70317339    -0.14800
F1061       F  0.63235751  0.38665365  0.79854012    -0.14800
F1062       F  0.71116920  0.36469013  0.79908991    -0.12400
C1063       C  0.97715511  0.50286891  0.02321461     0.25600
C1064       C  0.97780648  0.46994442  0.99828320    -0.22500
C1065       C  0.01053900  0.46480203  0.97268731     0.20500
C1066       C  0.04194173  0.49222748  0.97200123     0.25600
C1067       C  0.04131057  0.52502217  0.99713671    -0.22400
C1068       C  0.00856403  0.53005937  0.02269903     0.20500
F1069       F  0.00612311  0.56227938  0.04624495    -0.12400
F1070       F  0.94539054  0.50952293  0.04725207    -0.14800
F1071       F  0.07341597  0.48623538  0.94746397    -0.14800
F1072       F  0.01271908  0.43254064  0.94917194    -0.12400
C1073       C  0.89956332  0.34935626  0.89680256     0.25600
C1074       C  0.87142048  0.37279070  0.91777231    -0.22500
C1075       C  0.85144573  0.40372120  0.89709618     0.20500
C1076       C  0.85145233  0.40402045  0.85671006     0.25600
C1077       C  0.87186062  0.37371014  0.83574731    -0.22400
C1078       C  0.90013063  0.35021504  0.85651294     0.20500
F1079       F  0.93113023  0.33119488  0.83825443    -0.12400
F1080       F  0.92918114  0.32834540  0.91505136    -0.14800
F1081       F  0.83451546  0.43600111  0.83840889    -0.14800
F1082       F  0.83479545  0.43563370  0.91564806    -0.12400
C1083       C  0.90735283  0.37125695  0.60639891     0.25600
C1084       C  0.87097834  0.36801942  0.58574505    -0.22500
C1085       C  0.83741162  0.35445661  0.60691908     0.20500
C1086       C  0.83748519  0.35470278  0.64728680     0.25600
C1087       C  0.87096839  0.36892590  0.66779363    -0.22400
C1088       C  0.90732408  0.37185566  0.64675154     0.20500
F1089       F  0.94340597  0.37129161  0.66497268    -0.12400
F1090       F  0.94349608  0.36968266  0.58799005    -0.14800
F1091       F  0.80621198  0.33752794  0.66602274    -0.14800
F1092       F  0.80585586  0.33752341  0.58887179    -0.12400
C1093       C  0.89340999  0.15812003  0.02538750     0.25600
C1094       C  0.92595018  0.14556734  0.00161632    -0.22500
C1095       C  0.94427410  0.17411222  0.47749267     0.20500
C1096       C  0.93108044  0.21386991  0.47761977     0.25600
C1097       C  0.89927730  0.22634480  0.00167933    -0.22400
C1098       C  0.88038651  0.19825138  0.02547521     0.20500
F1099       F  0.84895199  0.20964663  0.04832690    -0.12400
F1100       F  0.87434073  0.13186307  0.04883105    -0.14800
F1101       F  0.95044576  0.24067809  0.45501460    -0.14800
F1102       F  0.97532135  0.16389553  0.45368159    -0.12400
C1103       C  0.65797315  0.40245603  0.02217394     0.25600
C1104       C  0.64404320  0.43175162  0.99582790    -0.22500
C1105       C  0.67221707  0.45012792  0.47116436     0.20500
C1106       C  0.71309696  0.44025727  0.47354379     0.25600
C1107       C  0.72689195  0.41186303  0.50041862    -0.22400
C1108       C  0.69910062  0.39293288  0.02462989     0.20500
F1109       F  0.71168076  0.36438271  0.04992564    -0.12400
F1110       F  0.63199107  0.38290680  0.04564327    -0.14800
F1111       F  0.73950566  0.45916593  0.45001714    -0.14800
F1112       F  0.66055265  0.47794203  0.44470520    -0.12400
loop_ 
_geom_bond_atom_site_label_1 
_geom_bond_atom_site_label_2 
_geom_bond_distance 
_geom_bond_site_symmetry_2 
_ccdc_geom_bond_type 
C1            C3   1.539       .  S
C1            C5   1.536       .  S
C1            C4   1.528       .  S
C1          C518   1.540       .  S
C2            C6   1.535       .  S
C2            C8   1.549       .  S
C2            C7   1.546       .  S
C2          C528   1.542       .  S
C3           C11   1.375       .  A
C3          C562   1.396       .  A
C4           C15   1.373       .  A
C4          C563   1.394       .  A
C5           C19   1.370       .  A
C5          C564   1.401       .  A
C6            C9   1.377       .  A
C6          C559   1.396   1_554  A
C7           C13   1.380       .  A
C7          C560   1.394   1_554  A
C8           C16   1.381       .  A
C8          C561   1.401   1_554  A
C9           N10   1.357       .  A
C9           H22   1.083       .  S
N10         C567   1.357   1_554  A
N10        C1097   1.435       .  S
C11         N566   1.357       .  A
C11          H12   1.081       .  S
C13         N570   1.359   1_554  A
C13          H23   1.081       .  S
N14          C15   1.356       .  A
N14         C569   1.359       .  A
N14         C508   1.438       .  S
C15          H21   1.083       .  S
C16          N17   1.358       .  A
C16          H18   1.082       .  S
N17         C575   1.353   1_554  A
N17         C551   1.433       .  S
C19         N573   1.353       .  A
C19          H20   1.082       .  S
C24          C26   1.526       .  S
C24          C28   1.544       .  S
C24          C27   1.541       .  S
C24         C531   1.542       .  S
C25          C29   1.544       .  S
C25          C31   1.544       .  S
C25          C30   1.531       .  S
C25         C521   1.541       .  S
C26          C34   1.370       .  A
C26          C29   1.395       .  A
C27          C38   1.375       .  A
C27          C30   1.395       .  A
C28          C42   1.376       .  A
C28          C31   1.400       .  A
C29          C32   1.378       .  A
C30          C36   1.373       .  A
C31          C39   1.378       .  A
C32          N33   1.357       .  A
C32          H45   1.080       .  S
N33          C34   1.355       .  A
N33         C488   1.433       .  S
C34          H35   1.084       .  S
C36          N37   1.358       .  A
C36          H46   1.083       .  S
N37          C38   1.359       .  A
N37         C481   1.438       .  S
C38          H44   1.080       .  S
C39          N40   1.357       .  A
C39          H41   1.081       .  S
N40          C42   1.356       .  A
N40         C498   1.437       .  S
C42          H43   1.081       .  S
C47          C49   1.541       .  S
C47          C51   1.529       .  S
C47          C50   1.540       .  S
C47         C438   1.542       .  S
C48          C52   1.547       .  S
C48          C54   1.528       .  S
C48          C53   1.547       .  S
C48         C448   1.544       .  S
C49          C57   1.379       .  A
C49         C608   1.404       .  A
C50          C61   1.376       .  A
C50         C609   1.400       .  A
C51          C65   1.373       .  A
C51         C610   1.390       .  A
C52          C55   1.382       .  A
C52         C605   1.404   1_554  A
C53          C59   1.378       .  A
C53         C606   1.400   1_554  A
C54          C62   1.373       .  A
C54         C607   1.390   1_554  A
C55         N612   1.356   1_554  A
C55          H68   1.081       .  S
N56          C57   1.353       .  A
N56         C611   1.356       .  A
N56         C468   1.444       .  S
C57          H58   1.080       .  S
C59         N616   1.359   1_554  A
C59          H69   1.085       .  S
N60          C61   1.357       .  A
N60         C615   1.359       .  A
N60         C428   1.439       .  S
C61          H67   1.078       .  S
C62         N619   1.357   1_554  A
C62          H64   1.083       .  S
N63          C65   1.358       .  A
N63         C618   1.357       .  A
N63         C458   1.433       .  S
C65          H66   1.082       .  S
C70          C72   1.543       .  S
C70          C74   1.530       .  S
C70          C73   1.544       .  S
C70         C451   1.541       .  S
C71          C75   1.550       .  S
C71          C77   1.532       .  S
C71          C76   1.543       .  S
C71         C441   1.540       .  S
C72          C80   1.379       .  A
C72          C75   1.402       .  A
C73          C84   1.377       .  A
C73          C76   1.400       .  A
C74          C88   1.376       .  A
C74          C77   1.390       .  A
C75          C78   1.386       .  A
C76          C82   1.378       .  A
C77          C85   1.377       .  A
C78          N79   1.359       .  A
C78          H91   1.081       .  S
N79          C80   1.355       .  A
N79         C418   1.441       .  S
C80          H81   1.083       .  S
C82          N83   1.358       .  A
C82          H92   1.082       .  S
N83          C84   1.357       .  A
N83         C398   1.439       .  S
C84          H90   1.081       .  S
C85          N86   1.357       .  A
C85          H87   1.083       .  S
N86          C88   1.358       .  A
N86         C408   1.434       .  S
C88          H89   1.082       .  S
O93         C109   1.273       .  A
O93         Zn99   2.019       .  S
C94         O110   1.270   1_545  A
C94         O107   1.271       .  A
C94         C136   1.433       .  S
O95         C664   1.272   1_554  A
O95        Cd102   2.052       .  S
O96         C114   1.275       .  A
O96        Cd105   2.081       .  S
O97         C667   1.274       .  A
O97        Cd101   2.074       .  S
O98         C665   1.273   1_554  A
O98        Cd101   2.064   1_565  S
Zn99        O110   1.973       .  S
Zn99        O112   2.024       .  S
Zn99        O104   1.942       .  S
O100        C111   1.274       .  A
O100       Cd105   2.063   1_655  S
Cd101       O103   2.040       .  S
Cd101       O660   1.996   1_544  S
Cd102       O106   2.028       .  S
Cd102       O115   2.086   1_565  S
Cd102       O660   1.988   1_454  S
O103        C113   1.271   1_545  A
O104       Cd105   1.985   1_665  S
O104       Cd657   1.996   1_565  S
O104       Cd658   1.988   1_655  S
Cd105       O107   2.040   1_455  S
O106        C113   1.270   1_455  A
C108        O112   1.274   1_455  A
C108        O651   1.272       .  A
C108        C388   1.485       .  S
C109        O654   1.273       .  A
C109        C471   1.488       .  S
C111        O653   1.274       .  A
C111        C538   1.490       .  S
C113        C117   1.431       .  S
C114        O671   1.274       .  A
C114        C378   1.496       .  S
O115        C670   1.274       .  A
O116        C132   1.274       .  A
O116       Zn122   2.023       .  S
C117        O133   1.269       .  A
C117        O130   1.269   1_565  A
O118        C131   1.272       .  A
O118       Cd125   2.044       .  S
O119        C137   1.274       .  A
O119       Cd128   2.076       .  S
O120        C134   1.273       .  A
O120       Cd124   2.059       .  S
O121        C132   1.275       .  A
O121       Cd124   2.083   1_565  S
Zn122       O133   1.978       .  S
Zn122       O135   2.011       .  S
Zn122       O127   1.933       .  S
O123        C134   1.272       .  A
O123       Cd128   2.050   1_655  S
Cd124       O126   2.048       .  S
Cd124       O127   1.991   1_545  S
Cd125       O129   2.028       .  S
Cd125       O138   2.067   1_565  S
Cd125       O127   1.985   1_455  S
O126        C136   1.272       .  A
O127       Cd128   1.983   1_665  S
Cd128       O130   2.029   1_455  S
O129        C136   1.269   1_465  A
C131        O135   1.274   1_455  A
C131        C368   1.479       .  S
C132        C421   1.497       .  S
C134        C491   1.483       .  S
C137        O138   1.272       .  A
C137        C358   1.493       .  S
C139        C141   1.532       .  S
C139        C143   1.548       .  S
C139        C142   1.546       .  S
C139        C331   1.543       .  S
C140        C144   1.521       .  S
C140        C146   1.537       .  S
C140        C145   1.541       .  S
C140        C338   1.542       .  S
C141        C149   1.378       .  A
C141        C700   1.387       .  A
C142        C153   1.379       .  A
C142        C701   1.401       .  A
C143        C157   1.386       .  A
C143        C702   1.411       .  A
C144        C147   1.370       .  A
C144        C697   1.387   1_554  A
C145        C151   1.372       .  A
C145        C698   1.401   1_554  A
C146        C154   1.376       .  A
C146        C699   1.411   1_554  A
C147        N704   1.355   1_554  A
C147        H160   1.083       .  S
N148        C149   1.358       .  A
N148        C703   1.355       .  A
N148        C391   1.431       .  S
C149        H150   1.083       .  S
C151        N708   1.357   1_554  A
C151        H161   1.082       .  S
N152        C153   1.360       .  A
N152        C707   1.357       .  A
N152        C511   1.438       .  S
C153        H159   1.081       .  S
C154        N711   1.348   1_554  A
C154        H156   1.083       .  S
N155        C157   1.352       .  A
N155        C710   1.348       .  A
N155        C348   1.434       .  S
C157        H158   1.081       .  S
C162        C164   1.531       .  S
C162        C166   1.543       .  S
C162        C165   1.543       .  S
C162        C341   1.542       .  S
C163        C167   1.525       .  S
C163        C169   1.542       .  S
C163        C168   1.541       .  S
C163        C328   1.544       .  S
C164        C172   1.376       .  A
C164        C167   1.392       .  A
C165        C176   1.376       .  A
C165        C168   1.400       .  A
C166        C180   1.383       .  A
C166        C169   1.408       .  A
C167        C170   1.370       .  A
C168        C174   1.373       .  A
C169        C177   1.379       .  A
C170        N171   1.355       .  A
C170        H183   1.083       .  S
N171        C172   1.357       .  A
N171        C371   1.427       .  S
C172        H173   1.082       .  S
C174        N175   1.356       .  A
C174        H184   1.081       .  S
N175        C176   1.359       .  A
N175        C478   1.439       .  S
C176        H182   1.081       .  S
C177        N178   1.351       .  A
C177        H179   1.082       .  S
N178        C180   1.350       .  A
N178        C321   1.431       .  S
C180        H181   1.082       .  S
C185        C187   1.527       .  S
C185        C189   1.547       .  S
C185        C188   1.547       .  S
C185        C298   1.542       .  S
C186        C190   1.531       .  S
C186        C192   1.548       .  S
C186        C191   1.546       .  S
C186        C288   1.543       .  S
C187        C195   1.374       .  A
C187        C746   1.390   1_554  A
C188        C199   1.378       .  A
C188        C747   1.402   1_554  A
C189        C203   1.383       .  A
C189        C748   1.397   1_554  A
C190        C193   1.376       .  A
C190        C743   1.390       .  A
C191        C197   1.379       .  A
C191        C744   1.402       .  A
C192        C200   1.383       .  A
C192        C745   1.397       .  A
C193        N194   1.357       .  A
C193        H206   1.083       .  S
N194        C751   1.357       .  A
N194        C311   1.432       .  S
C195        N750   1.357   1_554  A
C195        H196   1.082       .  S
C197        N198   1.358       .  A
C197        H207   1.083       .  S
N198        C755   1.357       .  A
N198        C431   1.439       .  S
C199        N754   1.357   1_554  A
C199        H205   1.080       .  S
C200        N201   1.361       .  A
C200        H202   1.082       .  S
N201        C759   1.360       .  A
N201        C381   1.451       .  S
C203        N757   1.360   1_554  A
C203        H204   1.080       .  S
C208        C210   1.533       .  S
C208        C212   1.549       .  S
C208        C211   1.541       .  S
C208        C291   1.543       .  S
C209        C213   1.527       .  S
C209        C215   1.545       .  S
C209        C214   1.545       .  S
C209        C301   1.541       .  S
C210        C218   1.377       .  A
C210        C213   1.391       .  A
C211        C222   1.376       .  A
C211        C214   1.399       .  A
C212        C226   1.385       .  A
C212        C215   1.406       .  A
C213        C216   1.374       .  A
C214        C220   1.378       .  A
C215        C223   1.381       .  A
C216        N217   1.355       .  A
C216        H229   1.083       .  S
N217        C218   1.358       .  A
N217        C278   1.430       .  S
C218        H219   1.082       .  S
C220        N221   1.358       .  A
C220        H230   1.082       .  S
N221        C222   1.356       .  A
N221        C401   1.439       .  S
C222        H228   1.081       .  S
C223        N224   1.355       .  A
C223        H225   1.082       .  S
N224        C226   1.357       .  A
N224        C361   1.445       .  S
C226        H227   1.081       .  S
O231        C247   1.270       .  A
O231       Zn237   1.981       .  S
C232        O248   1.273       .  A
C232        O801   1.273       .  A
C232        C308   1.487       .  S
O233        C802   1.270   1_554  A
O233       Cd240   2.039       .  S
O234        C252   1.271       .  A
O234       Cd243   2.046       .  S
O235        C249   1.271       .  A
O235       Cd239   2.043       .  S
O236        C247   1.269       .  A
O236       Cd239   2.022       .  S
Zn237       O248   2.012       .  S
Zn237       O250   2.017       .  S
Zn237       O242   1.935       .  S
O238        C805   1.273   1_554  A
O238       Cd243   2.065       .  S
Cd239       O241   2.065       .  S
Cd239       O242   1.981       .  S
Cd240       O244   2.045       .  S
Cd240       O253   2.014       .  S
Cd240       O798   1.971   1_554  S
O241        C251   1.272       .  A
O242       Cd796   1.971       .  S
O242       Cd799   1.988       .  S
Cd243       O245   2.061       .  S
Cd243       O798   1.988   1_554  S
O244        C807   1.270   1_554  A
O245        C788   1.273   1_554  A
C246        O250   1.273       .  A
C246        O789   1.270       .  A
C246        C351   1.484       .  S
C247        C274   1.429       .  S
C249        O794   1.273       .  A
C249        C548   1.483       .  S
C251        O800   1.270       .  A
C251        C461   1.485       .  S
C252        O253   1.266       .  A
C252        C255   1.430       .  S
O254        C270   1.274       .  A
O254       Zn260   2.027       .  S
C255        O271   1.270       .  A
C255        O268   1.270       .  A
O256        C269   1.274       .  A
O256       Cd263   2.066       .  S
O257        C275   1.270       .  A
O257       Cd266   2.042       .  S
O258        C272   1.272       .  A
O258       Cd262   2.065       .  S
O259        C270   1.271       .  A
O259       Cd262   2.044       .  S
Zn260       O271   1.978       .  S
Zn260       O273   2.018       .  S
Zn260       O265   1.940       .  S
O261        C272   1.273       .  A
O261       Cd266   2.070       .  S
Cd262       O264   2.025       .  S
Cd262       O265   1.979       .  S
Cd263       O267   2.036       .  S
Cd263       O276   2.073       .  S
Cd263       O265   1.990       .  S
O264        C274   1.269       .  A
O265       Cd266   1.982       .  S
Cd266       O268   2.028       .  S
O267        C274   1.271       .  A
C269        O273   1.273       .  A
C269        C281   1.487       .  S
C270        C318   1.485       .  S
C272        C411   1.488       .  S
C275        O276   1.274       .  A
C275        C501   1.486       .  S
C277        C278   1.400       .  A
C277        C282   1.399       .  A
C277        F284   1.357       .  S
C278        C279   1.399       .  A
C279        C280   1.398       .  A
C279        F286   1.357       .  S
C280        C281   1.412       .  A
C280        F285   1.358       .  S
C281        C282   1.413       .  A
C282        F283   1.358       .  S
C287        C288   1.414       .  A
C287        C292   1.403       .  A
C287        F294   1.356       .  S
C288        C289   1.414       .  A
C289        C290   1.405       .  A
C289        F296   1.357       .  S
C290        C291   1.412       .  A
C290        F295   1.357       .  S
C291        C292   1.411       .  A
C292        F293   1.356       .  S
C297        C298   1.411       .  A
C297        C302   1.401       .  A
C297        F304   1.357       .  S
C298        C299   1.413       .  A
C299        C300   1.406       .  A
C299        F306   1.356       .  S
C300        C301   1.413       .  A
C300        F305   1.357       .  S
C301        C302   1.412       .  A
C302        F303   1.357       .  S
C307        C308   1.412       .  A
C307        C312   1.396       .  A
C307        F314   1.358       .  S
C308        C309   1.413       .  A
C309        C310   1.398       .  A
C309        F316   1.358       .  S
C310        C311   1.401       .  A
C310        F315   1.357       .  S
C311        C312   1.401       .  A
C312        F313   1.357       .  S
C317        C318   1.413       .  A
C317        C322   1.402       .  A
C317        F324   1.358       .  S
C318        C319   1.412       .  A
C319        C320   1.391       .  A
C319        F326   1.358       .  S
C320        C321   1.399       .  A
C320        F325   1.358       .  S
C321        C322   1.402       .  A
C322        F323   1.357       .  S
C327        C328   1.412       .  A
C327        C332   1.405       .  A
C327        F334   1.357       .  S
C328        C329   1.412       .  A
C329        C330   1.401       .  A
C329        F336   1.357       .  S
C330        C331   1.415       .  A
C330        F335   1.356       .  S
C331        C332   1.412       .  A
C332        F333   1.357       .  S
C337        C338   1.413       .  A
C337        C342   1.406       .  A
C337        F344   1.357       .  S
C338        C339   1.413       .  A
C339        C340   1.399       .  A
C339        F346   1.357       .  S
C340        C341   1.413       .  A
C340        F345   1.357       .  S
C341        C342   1.411       .  A
C342        F343   1.356       .  S
C347        C348   1.403       .  A
C347        C352   1.391       .  A
C347        F354   1.358       .  S
C348        C349   1.403       .  A
C349        C350   1.400       .  A
C349        F912   1.357       .  S
C350        C351   1.412       .  A
C350        F911   1.358       .  S
C351        C352   1.411       .  A
C352        F353   1.358       .  S
F355        C906   1.358       .  S
F356        C905   1.357       .  S
C357        C358   1.410       .  A
C357        C362   1.398       .  A
C357        F364   1.358       .  S
C358        C359   1.414       .  A
C359        C360   1.402       .  A
C359        F366   1.358       .  S
C360        C361   1.407       .  A
C360        F365   1.357       .  S
C361        C362   1.407       .  A
C362        F363   1.357       .  S
C367        C368   1.411       .  A
C367        C372   1.398       .  A
C367        F374   1.358   1_455  S
C368        C369   1.412       .  A
C369        C370   1.393       .  A
C369        F376   1.358       .  S
C370        C371   1.399       .  A
C370        F375   1.357       .  S
C371        C372   1.401       .  A
C372        F373   1.357       .  S
C377        C378   1.410       .  A
C377        C382   1.399       .  A
C377        F384   1.358       .  S
C378        C935   1.412       .  A
C379        C380   1.406       .  A
C379        C934   1.412       .  A
C379        F386   1.358       .  S
C380        C937   1.412   1_554  A
C380        F385   1.357       .  S
C381        C382   1.409       .  A
C381        C936   1.412       .  A
C382        F383   1.357       .  S
C387        C388   1.413       .  A
C387        C392   1.401       .  A
C387        F394   1.358   1_455  S
C388        C389   1.412       .  A
C389        C390   1.393       .  A
C389        F396   1.358       .  S
C390        C391   1.399       .  A
C390        F395   1.357       .  S
C391        C392   1.402       .  A
C392        F393   1.357       .  S
C397        C398   1.406       .  A
C397        C402   1.398   1_565  A
C397        F404   1.357       .  S
C398        C399   1.408       .  A
C399        C400   1.396       .  A
C399        F406   1.357       .  S
C400        C401   1.404   1_565  A
C400        F405   1.357       .  S
C401        C402   1.409       .  A
C402        F403   1.357       .  S
C407        C408   1.401       .  A
C407        C412   1.399       .  A
C407        F414   1.357       .  S
C408        C409   1.402       .  A
C409        C410   1.399       .  A
C409        F416   1.357       .  S
C410        C411   1.413       .  A
C410        F415   1.358       .  S
C411        C412   1.412       .  A
C412        F413   1.358       .  S
C417        C418   1.404       .  A
C417        C422   1.399       .  A
C417        F424   1.358       .  S
C418        C419   1.404       .  A
C419        C420   1.404       .  A
C419        F426   1.357       .  S
C420        C421   1.414       .  A
C420        F425   1.357       .  S
C421        C422   1.413       .  A
C422        F423   1.358       .  S
C427        C432   1.397       .  A
C427        C984   1.407   1_554  A
C427        F434   1.357       .  S
C428        C429   1.406       .  A
C428        C983   1.407       .  A
C429        C430   1.399   1_565  A
C429        F436   1.357       .  S
C430        C431   1.408       .  A
C430        F435   1.357       .  S
C431        C988   1.405   1_545  A
C432        C987   1.405   1_564  A
C432        F433   1.357       .  S
C437        C438   1.413       .  A
C437        C442   1.401       .  A
C437        F444   1.357       .  S
C438        C439   1.410       .  A
C439        C440   1.405       .  A
C439        F446   1.357       .  S
C440        C441   1.414       .  A
C440        F445   1.356       .  S
C441        C442   1.412       .  A
C442        F443   1.357       .  S
C447        C448   1.413       .  A
C447        C452   1.401       .  A
C447        F454   1.356       .  S
C448        C449   1.413       .  A
C449        C450   1.406       .  A
C449        F456   1.357       .  S
C450        C451   1.413       .  A
C450        F455   1.357       .  S
C451        C452   1.411       .  A
C452        F453   1.357       .  S
C457        C458   1.403       .  A
C457        C462   1.397       .  A
C457        F464   1.357       .  S
C458       C1015   1.402       .  A
C459        C460   1.395       .  A
C459       C1014   1.402       .  A
C459        F466   1.357       .  S
C460       C1017   1.413   1_554  A
C460        F465   1.358       .  S
C461        C462   1.411       .  A
C461       C1016   1.413       .  A
C462        F463   1.358       .  S
C467        C468   1.406       .  A
C467        C472   1.397       .  A
C467        F474   1.356       .  S
C468       C1025   1.410       .  A
C469        C470   1.399       .  A
C469       C1024   1.410       .  A
C469        F476   1.358       .  S
C470       C1027   1.410       .  A
C470        F475   1.358       .  S
C471        C472   1.410       .  A
C471       C1026   1.410       .  A
C472        F473   1.357       .  S
C477        C478   1.407       .  A
C477        C482   1.395   1_455  A
C477        F484   1.357       .  S
C478        C479   1.407       .  A
C479        C480   1.397       .  A
C479        F486   1.357       .  S
C480        C481   1.407   1_455  A
C480        F485   1.357       .  S
C481        C482   1.406       .  A
C482        F483   1.357       .  S
C487        C488   1.402       .  A
C487        C492   1.395       .  A
C487        F494   1.357       .  S
C488        C489   1.404       .  A
C489        C490   1.394       .  A
C489        F496   1.358       .  S
C490        C491   1.412       .  A
C490        F495   1.358       .  S
C491        C492   1.412       .  A
C492        F493   1.358       .  S
C497        C498   1.403       .  A
C497        C502   1.394       .  A
C497        F504   1.357       .  S
C498        C499   1.405       .  A
C499        C500   1.398       .  A
C499        F506   1.357       .  S
C500        C501   1.411       .  A
C500        F505   1.358       .  S
C501        C502   1.413       .  A
C502        F503   1.358       .  S
C507        C508   1.404       .  A
C507        C512   1.395   1_655  A
C507        F514   1.357       .  S
C508        C509   1.409   1_655  A
C509        C510   1.400       .  A
C509        F516   1.357       .  S
C510        C511   1.405       .  A
C510        F515   1.357       .  S
C511        C512   1.408       .  A
C512        F513   1.357       .  S
C517        C518   1.410       .  A
C517        C522   1.401       .  A
C517        F524   1.356       .  S
C518        C519   1.414       .  A
C519        C520   1.404       .  A
C519        F526   1.357       .  S
C520        C521   1.412       .  A
C520        F525   1.357       .  S
C521        C522   1.412       .  A
C522        F523   1.356       .  S
C527        C528   1.413       .  A
C527        C532   1.403       .  A
C527        F534   1.356       .  S
C528        C529   1.412       .  A
C529        C530   1.404       .  A
C529        F536   1.356       .  S
C530        C531   1.413       .  A
C530        F535   1.357       .  S
C531        C532   1.412       .  A
C532        F533   1.356       .  S
C537        C538   1.415       .  A
C537        C542   1.403       .  A
C537        F544   1.358       .  S
C538       C1095   1.412       .  A
C539        C540   1.392       .  A
C539       C1094   1.412   1_556  A
C539        F546   1.358       .  S
C540       C1097   1.402   1_556  A
C540        F545   1.358       .  S
C541        C542   1.403       .  A
C541       C1096   1.402       .  A
C541        N566   1.435       .  S
C542        F543   1.358       .  S
C547        C548   1.412       .  A
C547        C552   1.398       .  A
C547        F554   1.358       .  S
C548       C1105   1.412       .  A
C549        C550   1.392       .  A
C549       C1104   1.412       .  A
C549        F556   1.358       .  S
C550        C551   1.402   1_556  A
C550        F555   1.358       .  S
C551       C1108   1.403       .  A
C552       C1107   1.403       .  A
C552        F553   1.357       .  S
C557        C559   1.539       .  S
C557        C561   1.536       .  S
C557        C560   1.528       .  S
C557       C1074   1.540       .  S
C558        C562   1.535       .  S
C558        C564   1.549       .  S
C558        C563   1.546       .  S
C558       C1084   1.542       .  S
C559        C567   1.375       .  A
C560        C571   1.373       .  A
C561        C575   1.371       .  A
C562        C565   1.377       .  A
C563        C569   1.380       .  A
C564        C572   1.381       .  A
C565        N566   1.357       .  A
C565        H578   1.083       .  S
C567        H568   1.081       .  S
C569        H579   1.081       .  S
N570        C571   1.356       .  A
N570       C1064   1.438       .  S
C571        H577   1.083       .  S
C572        N573   1.358       .  A
C572        H574   1.082       .  S
N573       C1107   1.432       .  S
C575        H576   1.082       .  S
C580        C582   1.526       .  S
C580        C584   1.544       .  S
C580        C583   1.541       .  S
C580       C1087   1.542       .  S
C581        C585   1.544       .  S
C581        C587   1.544       .  S
C581        C586   1.531       .  S
C581       C1077   1.541       .  S
C582        C590   1.370       .  A
C582        C585   1.395       .  A
C583        C594   1.375       .  A
C583        C586   1.395       .  A
C584        C598   1.376       .  A
C584        C587   1.400       .  A
C585        C588   1.378       .  A
C586        C592   1.373       .  A
C587        C595   1.378       .  A
C588        N589   1.357       .  A
C588        H601   1.080       .  S
N589        C590   1.355       .  A
N589       C1044   1.433       .  S
C590        H591   1.084       .  S
C592        N593   1.358       .  A
C592        H602   1.083       .  S
N593        C594   1.359       .  A
N593       C1037   1.438       .  S
C594        H600   1.080       .  S
C595        N596   1.357       .  A
C595        H597   1.081       .  S
N596        C598   1.356       .  A
N596       C1054   1.437       .  S
C598        H599   1.081       .  S
C603        C605   1.541       .  S
C603        C607   1.529       .  S
C603        C606   1.540       .  S
C603        C994   1.542       .  S
C604        C608   1.547       .  S
C604        C610   1.528       .  S
C604        C609   1.547       .  S
C604       C1004   1.544       .  S
C605        C613   1.379       .  A
C606        C617   1.376       .  A
C607        C621   1.373       .  A
C608        C611   1.382       .  A
C609        C615   1.378       .  A
C610        C618   1.373       .  A
C611        H624   1.081       .  S
N612        C613   1.353       .  A
N612       C1024   1.444       .  S
C613        H614   1.080       .  S
C615        H625   1.085       .  S
N616        C617   1.357       .  A
N616        C984   1.439       .  S
C617        H623   1.078       .  S
C618        H620   1.083       .  S
N619        C621   1.358       .  A
N619       C1014   1.433   1_556  S
C621        H622   1.082       .  S
C626        C628   1.543       .  S
C626        C630   1.530       .  S
C626        C629   1.544       .  S
C626       C1007   1.541       .  S
C627        C631   1.550       .  S
C627        C633   1.532       .  S
C627        C632   1.543       .  S
C627        C997   1.540       .  S
C628        C636   1.379       .  A
C628        C631   1.402       .  A
C629        C640   1.377       .  A
C629        C632   1.400       .  A
C630        C644   1.376       .  A
C630        C633   1.390       .  A
C631        C634   1.386       .  A
C632        C638   1.378       .  A
C633        C641   1.377       .  A
C634        N635   1.359       .  A
C634        H647   1.081       .  S
N635        C636   1.355       .  A
N635        C974   1.441       .  S
C636        H637   1.083       .  S
C638        N639   1.358       .  A
C638        H648   1.082       .  S
N639        C640   1.357       .  A
N639        C954   1.439       .  S
C640        H646   1.081       .  S
C641        N642   1.357       .  A
C641        H643   1.083       .  S
N642        C644   1.358       .  A
N642        C964   1.434       .  S
C644        H645   1.082       .  S
O649        C665   1.273       .  A
O649       Zn655   2.019       .  S
C650        O666   1.270   1_545  A
C650        O663   1.271       .  A
C650        C692   1.433       .  S
O651       Cd658   2.052       .  S
O652        C670   1.275   1_556  A
O652       Cd661   2.081       .  S
O653       Cd657   2.074       .  S
O654       Cd657   2.064   1_565  S
Zn655       O666   1.973       .  S
Zn655       O668   2.024       .  S
Zn655       O660   1.942       .  S
O656        C667   1.274   1_556  A
O656       Cd661   2.063   1_655  S
Cd657       O659   2.040       .  S
Cd658       O662   2.028       .  S
Cd658       O671   2.086   1_565  S
O659        C669   1.271   1_545  A
O660       Cd661   1.985   1_665  S
Cd661       O663   2.040   1_455  S
O662        C669   1.270   1_455  A
C664        O668   1.274   1_455  A
C664        C944   1.485       .  S
C665       C1027   1.488       .  S
C667       C1094   1.490       .  S
C669        C673   1.431       .  S
C670        C934   1.496       .  S
O672        C688   1.274       .  A
O672       Zn678   2.023       .  S
C673        O689   1.269       .  A
C673        O686   1.269   1_565  A
O674        C687   1.272       .  A
O674       Cd681   2.044       .  S
O675        C693   1.274       .  A
O675       Cd684   2.076       .  S
O676        C690   1.273       .  A
O676       Cd680   2.059       .  S
O677        C688   1.275       .  A
O677       Cd680   2.083   1_565  S
Zn678       O689   1.978       .  S
Zn678       O691   2.011       .  S
Zn678       O683   1.933       .  S
O679        C690   1.272       .  A
O679       Cd684   2.050   1_655  S
Cd680       O682   2.048       .  S
Cd680       O683   1.991   1_545  S
Cd681       O685   2.028       .  S
Cd681       O694   2.067   1_565  S
Cd681       O683   1.985   1_455  S
O682        C692   1.272       .  A
O683       Cd684   1.983   1_665  S
Cd684       O686   2.029   1_455  S
O685        C692   1.269   1_465  A
C687        O691   1.274   1_455  A
C687        C924   1.479       .  S
C688        C977   1.497       .  S
C690       C1047   1.483       .  S
C693        O694   1.272       .  A
C693        C914   1.493       .  S
C695        C697   1.532       .  S
C695        C699   1.548       .  S
C695        C698   1.546       .  S
C695        C887   1.543       .  S
C696        C700   1.521       .  S
C696        C702   1.537       .  S
C696        C701   1.541       .  S
C696        C894   1.542       .  S
C697        C705   1.378       .  A
C698        C709   1.379       .  A
C699        C713   1.386       .  A
C700        C703   1.370       .  A
C701        C707   1.372       .  A
C702        C710   1.376       .  A
C703        H716   1.083       .  S
N704        C705   1.358       .  A
N704        C947   1.431       .  S
C705        H706   1.083       .  S
C707        H717   1.082       .  S
N708        C709   1.360       .  A
N708       C1067   1.438       .  S
C709        H715   1.081       .  S
C710        H712   1.083       .  S
N711        C713   1.352       .  A
N711        C904   1.434       .  S
C713        H714   1.081       .  S
C718        C720   1.531       .  S
C718        C722   1.543       .  S
C718        C721   1.543       .  S
C718        C897   1.542       .  S
C719        C723   1.525       .  S
C719        C725   1.542       .  S
C719        C724   1.541       .  S
C719        C884   1.544       .  S
C720        C728   1.376       .  A
C720        C723   1.392       .  A
C721        C732   1.376       .  A
C721        C724   1.400       .  A
C722        C736   1.383       .  A
C722        C725   1.408       .  A
C723        C726   1.370       .  A
C724        C730   1.373       .  A
C725        C733   1.379       .  A
C726        N727   1.355       .  A
C726        H739   1.083       .  S
N727        C728   1.357       .  A
N727        C927   1.427       .  S
C728        H729   1.082       .  S
C730        N731   1.356       .  A
C730        H740   1.081       .  S
N731        C732   1.359       .  A
N731       C1034   1.439       .  S
C732        H738   1.081       .  S
C733        N734   1.351       .  A
C733        H735   1.082       .  S
N734        C736   1.350       .  A
N734        C877   1.431       .  S
C736        H737   1.082       .  S
C741        C743   1.527       .  S
C741        C745   1.547       .  S
C741        C744   1.547       .  S
C741        C854   1.542       .  S
C742        C746   1.531       .  S
C742        C748   1.548       .  S
C742        C747   1.546       .  S
C742        C844   1.543       .  S
C743        C751   1.374       .  A
C744        C755   1.378       .  A
C745        C759   1.383       .  A
C746        C749   1.376       .  A
C747        C753   1.379       .  A
C748        C756   1.383       .  A
C749        N750   1.357       .  A
C749        H762   1.083       .  S
N750        C867   1.432       .  S
C751        H752   1.082       .  S
C753        N754   1.358       .  A
C753        H763   1.083       .  S
N754        C987   1.439       .  S
C755        H761   1.080       .  S
C756        N757   1.361       .  A
C756        H758   1.082       .  S
N757        C937   1.451       .  S
C759        H760   1.080       .  S
C764        C766   1.533       .  S
C764        C768   1.549       .  S
C764        C767   1.541       .  S
C764        C847   1.543       .  S
C765        C769   1.527       .  S
C765        C771   1.545       .  S
C765        C770   1.545       .  S
C765        C857   1.541       .  S
C766        C774   1.377       .  A
C766        C769   1.391       .  A
C767        C778   1.376       .  A
C767        C770   1.399       .  A
C768        C782   1.385       .  A
C768        C771   1.406       .  A
C769        C772   1.374       .  A
C770        C776   1.378       .  A
C771        C779   1.381       .  A
C772        N773   1.355       .  A
C772        H785   1.083       .  S
N773        C774   1.358       .  A
N773        C834   1.430       .  S
C774        H775   1.082       .  S
C776        N777   1.358       .  A
C776        H786   1.082       .  S
N777        C778   1.356       .  A
N777        C957   1.439       .  S
C778        H784   1.081       .  S
C779        N780   1.355       .  A
C779        H781   1.082       .  S
N780        C782   1.357       .  A
N780        C917   1.445       .  S
C782        H783   1.081       .  S
O787        C803   1.270       .  A
O787       Zn793   1.981       .  S
C788        O804   1.273       .  A
C788        C864   1.487       .  S
O789       Cd796   2.039       .  S
O790        C808   1.271       .  A
O790       Cd799   2.046       .  S
O791        C805   1.271       .  A
O791       Cd795   2.043       .  S
O792        C803   1.269       .  A
O792       Cd795   2.022       .  S
Zn793       O804   2.012       .  S
Zn793       O806   2.017       .  S
Zn793       O798   1.935       .  S
O794       Cd799   2.065       .  S
Cd795       O797   2.065       .  S
Cd795       O798   1.981       .  S
Cd796       O800   2.045       .  S
Cd796       O809   2.014       .  S
O797        C807   1.272       .  A
Cd799       O801   2.061       .  S
C802        O806   1.273       .  A
C802        C907   1.484   1_556  S
C803        C830   1.429       .  S
C805       C1104   1.483       .  S
C807       C1017   1.485       .  S
C808        O809   1.266       .  A
C808        C811   1.430       .  S
O810        C826   1.274       .  A
O810       Zn816   2.027       .  S
C811        O827   1.270       .  A
C811        O824   1.270       .  A
O812        C825   1.274       .  A
O812       Cd819   2.066       .  S
O813        C831   1.270       .  A
O813       Cd822   2.042       .  S
O814        C828   1.272       .  A
O814       Cd818   2.065       .  S
O815        C826   1.271       .  A
O815       Cd818   2.044       .  S
Zn816       O827   1.978       .  S
Zn816       O829   2.018       .  S
Zn816       O821   1.940       .  S
O817        C828   1.273       .  A
O817       Cd822   2.070       .  S
Cd818       O820   2.025       .  S
Cd818       O821   1.979       .  S
Cd819       O823   2.036       .  S
Cd819       O832   2.073       .  S
Cd819       O821   1.990       .  S
O820        C830   1.269       .  A
O821       Cd822   1.982       .  S
Cd822       O824   2.028       .  S
O823        C830   1.271       .  A
C825        O829   1.273       .  A
C825        C837   1.487       .  S
C826        C874   1.485       .  S
C828        C967   1.488       .  S
C831        O832   1.274       .  A
C831       C1057   1.486       .  S
C833        C834   1.400       .  A
C833        C838   1.399       .  A
C833        F840   1.357       .  S
C834        C835   1.399       .  A
C835        C836   1.398       .  A
C835        F842   1.357       .  S
C836        C837   1.412       .  A
C836        F841   1.358       .  S
C837        C838   1.413       .  A
C838        F839   1.358       .  S
C843        C844   1.414       .  A
C843        C848   1.403       .  A
C843        F850   1.356       .  S
C844        C845   1.414       .  A
C845        C846   1.405       .  A
C845        F852   1.357       .  S
C846        C847   1.412       .  A
C846        F851   1.357       .  S
C847        C848   1.411       .  A
C848        F849   1.356       .  S
C853        C854   1.411       .  A
C853        C858   1.401       .  A
C853        F860   1.357       .  S
C854        C855   1.413       .  A
C855        C856   1.406       .  A
C855        F862   1.356       .  S
C856        C857   1.413       .  A
C856        F861   1.357       .  S
C857        C858   1.412       .  A
C858        F859   1.357       .  S
C863        C864   1.412   1_554  A
C863        C868   1.396       .  A
C863        F870   1.358       .  S
C864        C865   1.413       .  A
C865        C866   1.398       .  A
C865        F872   1.358       .  S
C866        C867   1.401       .  A
C866        F871   1.357       .  S
C867        C868   1.401   1_556  A
C868        F869   1.357       .  S
C873        C874   1.413       .  A
C873        C878   1.402       .  A
C873        F880   1.358       .  S
C874        C875   1.412       .  A
C875        C876   1.391       .  A
C875        F882   1.358       .  S
C876        C877   1.399       .  A
C876        F881   1.358       .  S
C877        C878   1.402       .  A
C878        F879   1.357       .  S
C883        C884   1.412       .  A
C883        C888   1.405       .  A
C883        F890   1.357       .  S
C884        C885   1.412       .  A
C885        C886   1.401       .  A
C885        F892   1.357       .  S
C886        C887   1.415       .  A
C886        F891   1.356       .  S
C887        C888   1.412       .  A
C888        F889   1.357       .  S
C893        C894   1.413       .  A
C893        C898   1.406       .  A
C893        F900   1.357       .  S
C894        C895   1.413       .  A
C895        C896   1.399       .  A
C895        F902   1.357       .  S
C896        C897   1.413       .  A
C896        F901   1.357       .  S
C897        C898   1.411       .  A
C898        F899   1.356       .  S
C903        C904   1.403   1_554  A
C903        C908   1.391       .  A
C903        F910   1.358       .  S
C904        C905   1.403       .  A
C905        C906   1.400       .  A
C906        C907   1.412   1_556  A
C907        C908   1.411       .  A
C908        F909   1.358       .  S
C913        C914   1.410       .  A
C913        C918   1.398       .  A
C913        F920   1.358       .  S
C914        C915   1.414       .  A
C915        C916   1.402       .  A
C915        F922   1.358       .  S
C916        C917   1.407       .  A
C916        F921   1.357       .  S
C917        C918   1.407       .  A
C918        F919   1.357       .  S
C923        C924   1.411       .  A
C923        C928   1.398       .  A
C923        F930   1.358   1_455  S
C924        C925   1.412       .  A
C925        C926   1.393       .  A
C925        F932   1.358       .  S
C926        C927   1.399       .  A
C926        F931   1.357       .  S
C927        C928   1.401       .  A
C928        F929   1.357       .  S
C933        C934   1.410   1_556  A
C933        C938   1.399       .  A
C933        F940   1.358       .  S
C935        C936   1.406       .  A
C935        F942   1.358       .  S
C936        F941   1.357       .  S
C937        C938   1.409       .  A
C938        F939   1.357       .  S
C943        C944   1.413       .  A
C943        C948   1.401       .  A
C943        F950   1.358   1_455  S
C944        C945   1.412   1_556  A
C945        C946   1.393       .  A
C945        F952   1.358       .  S
C946        C947   1.399   1_554  A
C946        F951   1.357       .  S
C947        C948   1.402       .  A
C948        F949   1.357       .  S
C953        C954   1.406       .  A
C953        C958   1.398   1_565  A
C953        F960   1.357       .  S
C954        C955   1.408       .  A
C955        C956   1.396       .  A
C955        F962   1.357       .  S
C956        C957   1.404   1_565  A
C956        F961   1.357       .  S
C957        C958   1.409       .  A
C958        F959   1.357       .  S
C963        C964   1.401       .  A
C963        C968   1.399       .  A
C963        F970   1.357       .  S
C964        C965   1.402       .  A
C965        C966   1.399       .  A
C965        F972   1.357       .  S
C966        C967   1.413       .  A
C966        F971   1.358       .  S
C967        C968   1.412       .  A
C968        F969   1.358       .  S
C973        C974   1.404       .  A
C973        C978   1.399       .  A
C973        F980   1.358       .  S
C974        C975   1.404       .  A
C975        C976   1.404       .  A
C975        F982   1.357       .  S
C976        C977   1.414       .  A
C976        F981   1.357       .  S
C977        C978   1.413       .  A
C978        F979   1.358       .  S
C983        C988   1.397       .  A
C983        F990   1.357       .  S
C984        C985   1.406       .  A
C985        C986   1.399   1_565  A
C985        F992   1.357       .  S
C986        C987   1.408       .  A
C986        F991   1.357       .  S
C988        F989   1.357       .  S
C993        C994   1.413       .  A
C993        C998   1.401       .  A
C993       F1000   1.357       .  S
C994        C995   1.410       .  A
C995        C996   1.405       .  A
C995       F1002   1.357       .  S
C996        C997   1.414       .  A
C996       F1001   1.356       .  S
C997        C998   1.412       .  A
C998        F999   1.357       .  S
C1003      C1004   1.413       .  A
C1003      C1008   1.401       .  A
C1003      F1010   1.356       .  S
C1004      C1005   1.413       .  A
C1005      C1006   1.406       .  A
C1005      F1012   1.357       .  S
C1006      C1007   1.413       .  A
C1006      F1011   1.357       .  S
C1007      C1008   1.411       .  A
C1008      F1009   1.357       .  S
C1013      C1014   1.403   1_556  A
C1013      C1018   1.397       .  A
C1013      F1020   1.357       .  S
C1015      C1016   1.395       .  A
C1015      F1022   1.357       .  S
C1016      F1021   1.358       .  S
C1017      C1018   1.411       .  A
C1018      F1019   1.358       .  S
C1023      C1024   1.406   1_554  A
C1023      C1028   1.397       .  A
C1023      F1030   1.356       .  S
C1025      C1026   1.399       .  A
C1025      F1032   1.358       .  S
C1026      F1031   1.358       .  S
C1027      C1028   1.410   1_556  A
C1028      F1029   1.357       .  S
C1033      C1034   1.407       .  A
C1033      C1038   1.395   1_455  A
C1033      F1040   1.357       .  S
C1034      C1035   1.407       .  A
C1035      C1036   1.397       .  A
C1035      F1042   1.357       .  S
C1036      C1037   1.407   1_455  A
C1036      F1041   1.357       .  S
C1037      C1038   1.406       .  A
C1038      F1039   1.357       .  S
C1043      C1044   1.402       .  A
C1043      C1048   1.395       .  A
C1043      F1050   1.357       .  S
C1044      C1045   1.404       .  A
C1045      C1046   1.394       .  A
C1045      F1052   1.358       .  S
C1046      C1047   1.412       .  A
C1046      F1051   1.358       .  S
C1047      C1048   1.412       .  A
C1048      F1049   1.358       .  S
C1053      C1054   1.403       .  A
C1053      C1058   1.394       .  A
C1053      F1060   1.357       .  S
C1054      C1055   1.405       .  A
C1055      C1056   1.398       .  A
C1055      F1062   1.357       .  S
C1056      C1057   1.411       .  A
C1056      F1061   1.358       .  S
C1057      C1058   1.413       .  A
C1058      F1059   1.358       .  S
C1063      C1064   1.404   1_554  A
C1063      C1068   1.395   1_655  A
C1063      F1070   1.357       .  S
C1064      C1065   1.409   1_655  A
C1065      C1066   1.400       .  A
C1065      F1072   1.357       .  S
C1066      C1067   1.405       .  A
C1066      F1071   1.357       .  S
C1067      C1068   1.408   1_556  A
C1068      F1069   1.357       .  S
C1073      C1074   1.410       .  A
C1073      C1078   1.401       .  A
C1073      F1080   1.356       .  S
C1074      C1075   1.414       .  A
C1075      C1076   1.404       .  A
C1075      F1082   1.357       .  S
C1076      C1077   1.412       .  A
C1076      F1081   1.357       .  S
C1077      C1078   1.412       .  A
C1078      F1079   1.356       .  S
C1083      C1084   1.413       .  A
C1083      C1088   1.403       .  A
C1083      F1090   1.356       .  S
C1084      C1085   1.412       .  A
C1085      C1086   1.404       .  A
C1085      F1092   1.356       .  S
C1086      C1087   1.413       .  A
C1086      F1091   1.357       .  S
C1087      C1088   1.412       .  A
C1088      F1089   1.356       .  S
C1093      C1094   1.415       .  A
C1093      C1098   1.403       .  A
C1093      F1100   1.358       .  S
C1095      C1096   1.392       .  A
C1095      F1102   1.358       .  S
C1096      F1101   1.358       .  S
C1097      C1098   1.403       .  A
C1098      F1099   1.358       .  S
C1103      C1104   1.412   1_554  A
C1103      C1108   1.398       .  A
C1103      F1110   1.358       .  S
C1105      C1106   1.392       .  A
C1105      F1112   1.358       .  S
C1106      C1107   1.402       .  A
C1106      F1111   1.358       .  S
C1108      F1109   1.357       .  S
