geometry optimzed in LAMMPS
_audit_creation_date              2020-11-30 
_audit_creation_method            'lammps2cif' 
_symmetry_space_group_name_H-M    'P1' 
_symmetry_Int_Tables_number       1 
_symmetry_cell_setting            triclinic 
loop_ 
_symmetry_equiv_pos_as_xyz 
  x,y,z 
_cell_length_a                    46.22117017 
_cell_length_b                    46.274932498950655 
_cell_length_c                    46.45093752688327 
_cell_angle_alpha                 89.89450558414605 
_cell_angle_beta                  90.09260841714904 
_cell_angle_gamma                 90.02342940889173 
loop_ 
_atom_site_label 
_atom_site_type_symbol 
_atom_site_fract_x 
_atom_site_fract_y 
_atom_site_fract_z 
_atom_site_charge 
C1          C  0.21260465  0.86852782  0.02474615     0.04000
C2          C  0.21226653  0.89875798  0.02560669    -0.12200
C3          C  0.21678943  0.91544902  0.00054945     0.01500
C4          C  0.22040254  0.90051578  0.97408592    -0.10700
C5          C  0.21912119  0.87012247  0.97298429     0.03900
C6          C  0.21579274  0.85434082  0.99843353    -0.10100
H7          H  0.20795397  0.90877643  0.04613653     0.09500
H8          H  0.22419870  0.91183731  0.95434083     0.07100
H9          H  0.21521382  0.83090779  0.99770565     0.06900
C10         C  0.61804361  0.99987617  0.02235968     0.04000
C11         C  0.62430294  0.01446099  0.99674787    -0.12200
C12         C  0.62788248  0.99922318  0.97106814     0.01500
C13         C  0.62625020  0.96895500  0.97120622    -0.10700
C14         C  0.61927059  0.95359383  0.99663759     0.03900
C15         C  0.61444250  0.96979921  0.02200474    -0.10100
H16         H  0.62654085  0.03778613  0.99681255     0.09500
H17         H  0.63084490  0.95789765  0.95127446     0.07100
H18         H  0.60795537  0.95954078  0.04185299     0.06900
C19         C  0.85356186  0.95966010  0.31196137     0.04000
C20         C  0.88389677  0.96010316  0.31429297    -0.12200
C21         C  0.89983864  0.93427333  0.31877821     0.01500
C22         C  0.88388645  0.90817369  0.32124897    -0.10700
C23         C  0.85383705  0.90746077  0.31700268     0.03900
C24         C  0.83884014  0.93331518  0.31286317    -0.10100
H25         H  0.89453260  0.98067949  0.31156971     0.09500
H26         H  0.89424657  0.88784566  0.32588846     0.07100
H27         H  0.81561450  0.93290049  0.30954261     0.06900
C28         C  0.98266706  0.96390323  0.70145820     0.04000
C29         C  0.95239032  0.96433988  0.70210996    -0.12200
C30         C  0.93614388  0.93926429  0.69615777     0.01500
C31         C  0.95127534  0.91339973  0.69006834    -0.10700
C32         C  0.98166678  0.91233665  0.69116145     0.03900
C33         C  0.99716012  0.93782851  0.69648664    -0.10100
H34         H  0.94184279  0.98439213  0.70775702     0.09500
H35         H  0.93973698  0.89383951  0.68456986     0.07100
H36         H  0.02060343  0.93734934  0.69704851     0.06900
C37         C  0.94877657  0.62032005  0.06018761     0.04000
C38         C  0.92311259  0.62709907  0.07456635    -0.12200
C39         C  0.89710842  0.63033929  0.05956999     0.01500
C40         C  0.89695726  0.62787887  0.02947056    -0.10700
C41         C  0.92221752  0.62009902  0.01411153     0.03900
C42         C  0.94802072  0.61575857  0.03023094    -0.10100
H43         H  0.92338513  0.63002597  0.09771857     0.09500
H44         H  0.87686650  0.63246448  0.01853546     0.07100
H45         H  0.96781092  0.60896771  0.01997328     0.06900
C46         C  0.89195894  0.24876819  0.93610085     0.04000
C47         C  0.91818611  0.24852885  0.92131125    -0.12200
C48         C  0.94430163  0.24930103  0.93636693     0.01500
C49         C  0.94414280  0.25020546  0.96658726    -0.10700
C50         C  0.91783441  0.25038865  0.98244671     0.03900
C51         C  0.89173912  0.24993558  0.96626096    -0.10100
H52         H  0.91827331  0.24732360  0.89800024     0.09500
H53         H  0.96498952  0.25030505  0.97691370     0.07100
H54         H  0.87078125  0.24989164  0.97629783     0.06900
C55         C  0.61477623  0.87459386  0.97172595     0.04000
C56         C  0.61477980  0.90491715  0.97120742    -0.12200
C57         C  0.61756618  0.92105543  0.99697524     0.01500
C58         C  0.61969361  0.90554219  0.02319184    -0.10700
C59         C  0.61789716  0.87535200  0.02376139     0.03900
C60         C  0.61550734  0.86002613  0.99805782    -0.10100
H61         H  0.61311363  0.91537360  0.95046539     0.09500
H62         H  0.62344562  0.91635776  0.04342112     0.07100
H63         H  0.61543387  0.83659313  0.99846952     0.06900
C64         C  0.21962487  0.99295363  0.03039690     0.04000
C65         C  0.21548963  0.00904317  0.00525000    -0.12200
C66         C  0.21220849  0.99530873  0.97870704     0.01500
C67         C  0.21224010  0.96502881  0.97723025    -0.10700
C68         C  0.21701492  0.94804843  0.00214080     0.03900
C69         C  0.22130920  0.96268244  0.02866326    -0.10100
H70         H  0.21453214  0.03244583  0.00636659     0.09500
H71         H  0.20804729  0.95535547  0.95674657     0.07100
H72         H  0.22598306  0.95104044  0.04830771     0.06900
C73         C  0.85798154  0.96674591  0.69393312     0.04000
C74         C  0.88828204  0.96603989  0.69213425    -0.12200
C75         C  0.90369123  0.94004266  0.69698902     0.01500
C76         C  0.88770432  0.91479910  0.70313263    -0.10700
C77         C  0.85739806  0.91525055  0.70357552     0.03900
C78         C  0.84269660  0.94126068  0.69929399    -0.10100
H79         H  0.89944606  0.98586525  0.68678405     0.09500
H80         H  0.89846968  0.89457719  0.70779176     0.07100
H81         H  0.81925341  0.94166920  0.70010383     0.06900
C82         C  0.97949173  0.95975742  0.31931124     0.04000
C83         C  0.99386821  0.93331403  0.31652619    -0.12200
C84         C  0.97847261  0.90746737  0.31577070     0.01500
C85         C  0.94823008  0.90788496  0.31612640    -0.10700
C86         C  0.93266633  0.93411348  0.31914963     0.03900
C87         C  0.94905385  0.96001353  0.32146564    -0.10100
H88         H  0.01726614  0.93279025  0.31492989     0.09500
H89         H  0.93754366  0.88736984  0.31354218     0.07100
H90         H  0.93869428  0.98062067  0.32478580     0.06900
C91         C  0.89501235  0.61597276  0.93577058     0.04000
C92         C  0.89537934  0.61534622  0.96601967    -0.12200
C93         C  0.92177378  0.61752740  0.98161195     0.01500
C94         C  0.94773519  0.61903692  0.96552419    -0.10700
C95         C  0.94745997  0.61797806  0.93533356     0.03900
C96         C  0.92112501  0.61648808  0.92066582    -0.10100
H97         H  0.87477982  0.61403064  0.97683828     0.09500
H98         H  0.96840023  0.62220138  0.97590675     0.07100
H99         H  0.92088004  0.61735639  0.89733390     0.06900
C100        C  0.94368850  0.24743801  0.06155349     0.04000
C101        C  0.91737872  0.24611756  0.07627576    -0.12200
C102        C  0.89120790  0.24679594  0.06125738     0.01500
C103        C  0.89132368  0.24850305  0.03107718    -0.10700
C104        C  0.91759519  0.24995089  0.01524785     0.03900
C105        C  0.94370264  0.24996106  0.03141476    -0.10100
H106        H  0.91725740  0.24387441  0.09951648     0.09500
H107        H  0.87047903  0.24843118  0.02074626     0.07100
H108        H  0.96458729  0.25131427  0.02132532     0.06900
C109        C  0.35695548  0.46584905  0.80795021     0.04000
C110        C  0.38728844  0.46526830  0.80730700    -0.12200
C111        C  0.40273780  0.43920042  0.81201196     0.01500
C112        C  0.38632339  0.41387734  0.81719773    -0.10700
C113        C  0.35601014  0.41418330  0.81582687     0.03900
C114        C  0.34148029  0.44028061  0.81186985    -0.10100
H115        H  0.39817146  0.48523850  0.80214688     0.09500
H116        H  0.39647261  0.39333306  0.82144019     0.07100
H117        H  0.31805017  0.44053952  0.81060746     0.06900
C118        C  0.35313598  0.46144582  0.20632236     0.04000
C119        C  0.38338861  0.46139742  0.20549590    -0.12200
C120        C  0.39898788  0.43571956  0.20006258     0.01500
C121        C  0.38300455  0.40987927  0.19614083    -0.10700
C122        C  0.35268362  0.40951667  0.19883650     0.03900
C123        C  0.33795374  0.43548818  0.20368115    -0.10100
H124        H  0.39426463  0.48166929  0.20937678     0.09500
H125        H  0.39370877  0.38979967  0.19099515     0.07100
H126        H  0.31455911  0.43554404  0.20535343     0.06900
C127        C  0.11222822  0.36860752  0.52384016     0.04000
C128        C  0.11185928  0.39888856  0.52519148    -0.12200
C129        C  0.10810017  0.41592580  0.50017536     0.01500
C130        C  0.10424860  0.40148508  0.47357663    -0.10700
C131        C  0.10531497  0.37119034  0.47204591     0.03900
C132        C  0.10930399  0.35499567  0.49713753    -0.10100
H133        H  0.11539659  0.40879908  0.54593051     0.09500
H134        H  0.10077664  0.41339879  0.45383696     0.07100
H135        H  0.11074097  0.33164984  0.49577388     0.06900
O136        O  0.22011890  0.23998283  0.75344721    -0.77700
C137        C  0.22663290  0.15831075  0.70424469     0.83400
O138        O  0.12782645  0.22728144  0.71071652    -0.78800
O139        O  0.14145599  0.12663345  0.73774854    -0.80300
O140        O  0.18773034  0.16284290  0.82029718    -0.80100
O141        O  0.21151367  0.23016035  0.79968504    -0.78700
Zn142      Zn  0.19717646  0.21133974  0.73037241     1.55700
O143        O  0.19208161  0.12851291  0.78707550    -0.80100
Cd144      Cd  0.17859838  0.19981059  0.79640742     1.59700
Cd145      Cd  0.13000551  0.19859336  0.74537156     1.59600
O146        O  0.14226256  0.21836153  0.81493750    -0.80100
O147        O  0.17139597  0.18963834  0.75503961    -1.90600
Cd148      Cd  0.17920860  0.14762855  0.74894217     1.59900
O149        O  0.10894658  0.21633202  0.78072459    -0.80000
O150        O  0.21024478  0.14034164  0.71718907    -0.78700
C151        C  0.14803779  0.23833106  0.69556356     0.83800
C152        C  0.22421874  0.24477834  0.78013094     0.83500
O153        O  0.22457352  0.18544038  0.70837811    -0.77600
C154        C  0.19243540  0.13659715  0.81329743     0.84300
O155        O  0.17460467  0.23357295  0.70097823    -0.77700
C156        C  0.11645772  0.22285115  0.80635744     0.84400
C157        C  0.11542445  0.13448944  0.73317346     0.84800
O158        O  0.10780275  0.16094783  0.73473857    -0.80200
C159        C  0.73220821  0.37536039  0.52664339     0.04000
C160        C  0.73271717  0.40553680  0.52476307    -0.12200
C161        C  0.72631848  0.41980263  0.49863000     0.01500
C162        C  0.72016574  0.40262812  0.47413910    -0.10700
C163        C  0.72152673  0.37222980  0.47549987     0.03900
C164        C  0.72772491  0.35891275  0.50186923    -0.10100
H165        H  0.73775895  0.41749930  0.54408645     0.09500
H166        H  0.71386688  0.41254259  0.45399082     0.07100
H167        H  0.72811520  0.33553191  0.50336868     0.06900
C168        C  0.38808930  0.12335973  0.56321348     0.04000
C169        C  0.41357799  0.12630032  0.57896831    -0.12200
C170        C  0.44001537  0.12939797  0.56500293     0.01500
C171        C  0.44121440  0.12967916  0.53490051    -0.10700
C172        C  0.41604604  0.12572380  0.51798223     0.03900
C173        C  0.38929115  0.12240223  0.53290398    -0.10100
H174        H  0.41273363  0.12721299  0.60228613     0.09500
H175        H  0.46208133  0.13365221  0.52531744     0.07100
H176        H  0.36912306  0.11932225  0.52163625     0.06900
O177        O  0.62360326  0.24172126  0.74476832    -0.77700
C178        C  0.69927634  0.24018412  0.69091024     0.83400
O179        O  0.62295062  0.14551837  0.71080049    -0.78800
O180        O  0.72998978  0.15607143  0.72120872    -0.80300
O181        O  0.69955397  0.21553363  0.80514835    -0.80100
O182        O  0.62933894  0.22883229  0.79058536    -0.78700
Zn183      Zn  0.64691073  0.21415043  0.72098728     1.55700
O184        O  0.73453766  0.20587864  0.77377647    -0.80100
Cd185      Cd  0.66270194  0.19891109  0.78610509     1.59700
Cd186      Cd  0.65904110  0.14808863  0.73728793     1.59600
O187        O  0.65416033  0.16157913  0.80889779    -0.80100
O188        O  0.67001834  0.18912636  0.74493466    -1.90600
Cd189      Cd  0.71217901  0.19423010  0.73674653     1.59900
O190        O  0.65192207  0.12664258  0.77595301    -0.80000
O191        O  0.71777397  0.22630150  0.70591926    -0.78700
C192        C  0.61016034  0.16532268  0.69655315     0.83800
C193        C  0.61759541  0.24466395  0.77133182     0.83500
O194        O  0.67212284  0.23693079  0.69420078    -0.77600
C195        C  0.72626899  0.21463248  0.79846255     0.84300
O196        O  0.61787244  0.19167339  0.69801021    -0.77700
C197        C  0.65123163  0.13506018  0.80210247     0.84400
C198        C  0.71924734  0.13176300  0.71384024     0.84800
O199        O  0.69238807  0.12654312  0.71703351    -0.80200
C200        C  0.12013290  0.49528058  0.47949473     0.04000
C201        C  0.11778608  0.46508872  0.47767920    -0.12200
C202        C  0.10972062  0.44838076  0.50187721     0.01500
C203        C  0.10436150  0.46301782  0.52807059    -0.10700
C204        C  0.10874203  0.49293692  0.53051306     0.03900
C205        C  0.11630873  0.50889734  0.50604142    -0.10100
H206        H  0.12253577  0.45503020  0.45724973     0.09500
H207        H  0.09699119  0.45149419  0.54693487     0.07100
H208        H  0.11908458  0.53210783  0.50761496     0.06900
O209        O  0.16600210  0.73584161  0.79724831    -0.77700
C210        C  0.11582866  0.74404338  0.71719544     0.83400
O211        O  0.12733004  0.64234641  0.78700176    -0.78800
O212        O  0.14487475  0.65809066  0.68361855    -0.80300
O213        O  0.23000855  0.70823268  0.71810126    -0.80100
O214        O  0.21221842  0.72778668  0.78616094    -0.78700
Zn215      Zn  0.14183800  0.71236974  0.76934222     1.55700
O216        O  0.19784763  0.70816118  0.68279715    -0.80100
Cd217      Cd  0.20796878  0.69611874  0.75480235     1.59700
Cd218      Cd  0.15801192  0.64641431  0.75464315     1.59600
O219        O  0.22881458  0.65930064  0.76929756    -0.80100
O220        O  0.16640962  0.68799099  0.74572161    -1.90600
Cd221      Cd  0.15950975  0.69568413  0.70361843     1.59900
O222        O  0.19521341  0.62500552  0.76687491    -0.80000
O223        O  0.12897068  0.72855964  0.69861680    -0.78700
C224        C  0.11139994  0.66135180  0.79888553     0.83800
C225        C  0.19293463  0.74023538  0.80128206     0.83500
O226        O  0.11913385  0.74010862  0.74420104    -0.77600
C227        C  0.22379542  0.71179962  0.69160892     0.84300
O228        O  0.11396363  0.68821469  0.79319465    -0.77700
C229        C  0.22114602  0.63296574  0.77174553     0.84400
C230        C  0.14017638  0.63225754  0.69221606     0.84800
O231        O  0.14341438  0.62488261  0.71846512    -0.80200
C232        C  0.48229031  0.46295411  0.80712463     0.04000
C233        C  0.45216311  0.46371800  0.81053860    -0.12200
C234        C  0.43539537  0.43810999  0.81007408     0.01500
C235        C  0.45031789  0.41149705  0.80708623    -0.10700
C236        C  0.48060043  0.41045982  0.80514305     0.03900
C237        C  0.49638382  0.43630116  0.80477985    -0.10100
H238        H  0.44238007  0.48463446  0.81368946     0.09500
H239        H  0.43897326  0.39118084  0.80592978     0.07100
H240        H  0.51971132  0.43567368  0.80246537     0.06900
C241        C  0.39748085  0.74344123  0.56060530     0.04000
C242        C  0.42365775  0.74609014  0.57542039    -0.12200
C243        C  0.44955064  0.75005193  0.56042388     0.01500
C244        C  0.44900298  0.75220147  0.53026282    -0.10700
C245        C  0.42299999  0.74836818  0.51439042     0.03900
C246        C  0.39722578  0.74388304  0.53034312    -0.10100
H247        H  0.42392581  0.74452212  0.59871314     0.09500
H248        H  0.46930391  0.75667721  0.51979972     0.07100
H249        H  0.37674749  0.74016505  0.51981825     0.06900
C250        C  0.72895310  0.49738488  0.46970941     0.04000
C251        C  0.72488392  0.51326142  0.49500444    -0.12200
C252        C  0.72089681  0.49922336  0.52137983     0.01500
C253        C  0.72041986  0.46892696  0.52230895    -0.10700
C254        C  0.72559477  0.45228370  0.49727217     0.03900
C255        C  0.73012468  0.46708400  0.47101751    -0.10100
H256        H  0.72421990  0.53666832  0.49408415     0.09500
H257        H  0.71586651  0.45873121  0.54275196     0.07100
H258        H  0.73445330  0.45539531  0.45135690     0.06900
O259        O  0.72276069  0.73641548  0.75256673    -0.77700
C260        C  0.64550953  0.73832551  0.80606063     0.83400
O261        O  0.71568069  0.64004546  0.78459727    -0.78800
O262        O  0.61017860  0.65591087  0.77011635    -0.80300
O263        O  0.64167381  0.71394242  0.68889561    -0.80100
O264        O  0.71084370  0.73139595  0.70627006    -0.78700
Zn265      Zn  0.69663360  0.71027376  0.77523405     1.55700
O266        O  0.60881402  0.71110412  0.72373874    -0.80100
Cd267      Cd  0.67950636  0.69914196  0.70853881     1.59700
Cd268      Cd  0.68178291  0.64577873  0.75522704     1.59600
O269        O  0.69239050  0.66346374  0.68469704    -0.80100
O270        O  0.67237462  0.68766858  0.74969466    -1.90600
Cd271      Cd  0.63058856  0.69441258  0.75909903     1.59900
O272        O  0.69109938  0.62672972  0.71565020    -0.80000
O273        O  0.62639865  0.72359125  0.79277536    -0.78700
C274        C  0.72784978  0.65817984  0.80141542     0.83800
C275        C  0.72580411  0.74314556  0.72616915     0.83500
O276        O  0.67242075  0.73549741  0.80094955    -0.77600
C277        C  0.61572561  0.71687686  0.69778154     0.84300
O278        O  0.72178665  0.68501792  0.80039607    -0.77700
C279        C  0.69448836  0.63649525  0.69012806     0.84400
C280        C  0.61940754  0.63030488  0.77456425     0.84800
O281        O  0.64606236  0.62404582  0.77128352    -0.80200
C282        C  0.44628736  0.12728578  0.44041006     0.04000
C283        C  0.44479056  0.12478668  0.47055676    -0.12200
C284        C  0.41781428  0.12625217  0.48533152     0.01500
C285        C  0.39255139  0.12927537  0.46832686    -0.10700
C286        C  0.39404261  0.13053729  0.43821686     0.03900
C287        C  0.42083455  0.12976414  0.42445570    -0.10100
H288        H  0.46498920  0.12185926  0.48184291     0.09500
H289        H  0.37144012  0.13150478  0.47789508     0.07100
H290        H  0.42190246  0.13167500  0.40120820     0.06900
O291        O  0.61500099  0.23399893  0.25057415    -0.77700
C292        C  0.61087297  0.15629975  0.30138919     0.83400
O293        O  0.70988446  0.22366462  0.29307786    -0.78800
O294        O  0.69296266  0.12121825  0.26730170    -0.80300
O295        O  0.64472637  0.16185203  0.18502074    -0.80100
O296        O  0.62872141  0.22976739  0.20484904    -0.78700
Zn297      Zn  0.64058519  0.20804352  0.27376148     1.55700
O298        O  0.64280899  0.12514271  0.21615905    -0.80100
Cd299      Cd  0.65927470  0.19696608  0.20819876     1.59700
Cd300      Cd  0.70713415  0.19332913  0.25976237     1.59600
O301        O  0.69767313  0.20996559  0.18871592    -0.80100
O302        O  0.66568027  0.18550191  0.24934753    -1.90600
Cd303      Cd  0.65609355  0.14348209  0.25481620     1.59900
O304        O  0.72950166  0.20952542  0.22438305    -0.80000
O305        O  0.62413663  0.13761337  0.28615611    -0.78700
C306        C  0.68985133  0.23733112  0.30620317     0.83800
C307        C  0.61281399  0.24108278  0.22419062     0.83500
O308        O  0.61541642  0.18323846  0.29859706    -0.77600
C309        C  0.64016472  0.13528273  0.19072427     0.84300
O310        O  0.66333802  0.23300352  0.30033060    -0.77700
C311        C  0.72336727  0.21396773  0.19795495     0.84400
C312        C  0.71906431  0.12844117  0.27267542     0.84800
O313        O  0.72755485  0.15470991  0.27132888    -0.80200
C314        C  0.44970155  0.74523076  0.43595589     0.04000
C315        C  0.42368105  0.74650978  0.42070104    -0.12200
C316        C  0.39732149  0.74860451  0.43514287     0.01500
C317        C  0.39703040  0.75003765  0.46542550    -0.10700
C318        C  0.42305251  0.74819278  0.48169115     0.03900
C319        C  0.44930166  0.74543806  0.46614565    -0.10100
H320        H  0.42392031  0.74528271  0.39738616     0.09500
H321        H  0.37627246  0.75247861  0.47570801     0.07100
H322        H  0.46981816  0.74297695  0.47689338     0.06900
C323        C  0.47730276  0.46254795  0.19430188     0.04000
C324        C  0.49267121  0.43680293  0.19761683    -0.12200
C325        C  0.47813114  0.41067682  0.20185643     0.01500
C326        C  0.44777977  0.41041599  0.20319416    -0.10700
C327        C  0.43156776  0.43598867  0.19879481     0.03900
C328        C  0.44698526  0.46199464  0.19386740    -0.10100
H329        H  0.51613135  0.43718092  0.19740267     0.09500
H330        H  0.43727296  0.39013854  0.20807641     0.07100
H331        H  0.43594032  0.48214046  0.18978850     0.06900
O332        O  0.66951453  0.63567008  0.29895378    -0.77700
C333        C  0.61219806  0.70872913  0.29695922     0.83400
O334        O  0.63174105  0.64002547  0.20086327    -0.78800
O335        O  0.64792370  0.74410460  0.21535663    -0.80300
O336        O  0.73064967  0.71402629  0.26923480    -0.80100
O337        O  0.71560371  0.64505872  0.28823307    -0.78700
Zn338      Zn  0.64529606  0.65815925  0.27070446     1.55700
O339        O  0.69499954  0.74639005  0.26841776    -0.80100
Cd340      Cd  0.71120468  0.67587279  0.25588853     1.59700
Cd341      Cd  0.66219982  0.67293080  0.20505482     1.59600
O342        O  0.73393462  0.66319118  0.21966810    -0.80100
O343        O  0.66935198  0.68240585  0.24652790    -1.90600
Cd344      Cd  0.65950772  0.72392907  0.25346286     1.59900
O345        O  0.70062035  0.66125971  0.18493340    -0.80000
O346        O  0.62650021  0.72799198  0.28343600    -0.78700
C347        C  0.61864581  0.62533171  0.22011476     0.83800
C348        C  0.69649283  0.63209947  0.30325887     0.83500
O349        O  0.61702429  0.68186803  0.29357318    -0.77600
C350        C  0.72139326  0.73974109  0.27272014     0.84300
O351        O  0.62245117  0.62992305  0.24687967    -0.77700
C352        C  0.72680710  0.65915143  0.19345665     0.84400
C353        C  0.64432209  0.73560990  0.18952571     0.84800
O354        O  0.64778887  0.70909806  0.18305745    -0.80200
O355        O  0.11051790  0.68776543  0.20909948    -0.77700
C356        C  0.11305706  0.74039579  0.28851288     0.83400
O357        O  0.20480958  0.72423187  0.20814034    -0.78800
O358        O  0.20202215  0.71032458  0.31326937    -0.80300
O359        O  0.14403042  0.62600363  0.28664871    -0.80100
O360        O  0.12081920  0.64189986  0.21882299    -0.78700
Zn361      Zn  0.13723945  0.71183145  0.23408284     1.55700
O362        O  0.15190707  0.65974015  0.32004435    -0.80100
Cd363      Cd  0.15441706  0.64625020  0.24832492     1.59700
Cd364      Cd  0.20487837  0.69496117  0.24187255     1.59600
O365        O  0.18989384  0.62392475  0.23282589    -0.80100
O366        O  0.16435589  0.68778787  0.25522409    -1.90600
Cd367      Cd  0.16222896  0.69675488  0.29735607     1.59900
O368        O  0.22438684  0.65674073  0.22886114    -0.80000
O369        O  0.13093172  0.72807322  0.30551435    -0.78700
C370        C  0.18467937  0.74010779  0.19797952     0.83800
C371        C  0.10628954  0.66084945  0.20503418     0.83500
O372        O  0.11299921  0.73557396  0.26148887    -0.77600
C373        C  0.14540084  0.63396020  0.31288147     0.84300
O374        O  0.15869667  0.73845353  0.20701719    -0.77700
C375        C  0.21590789  0.63061086  0.22674252     0.84400
C376        C  0.22665729  0.71491280  0.30179057     0.84800
O377        O  0.23059660  0.71125254  0.27486182    -0.80200
O378        O  0.21157049  0.23754090  0.25353820    -0.77700
C379        C  0.13478657  0.23520460  0.30709236     0.83400
O380        O  0.21340534  0.14188437  0.28896925    -0.78800
O381        O  0.10718641  0.14900875  0.27674923    -0.80300
O382        O  0.13471674  0.20416747  0.19132254    -0.80100
O383        O  0.20254197  0.22766059  0.20751753    -0.78700
Zn384      Zn  0.18814641  0.20990408  0.27752732     1.55700
O385        O  0.10107654  0.19967919  0.22534683    -0.80100
Cd386      Cd  0.17338980  0.19350830  0.21153793     1.59700
Cd387      Cd  0.17889082  0.14303200  0.26014320     1.59600
O388        O  0.18921094  0.15794378  0.18938692    -0.80100
O389        O  0.16623852  0.18388684  0.25307029    -1.90600
Cd390      Cd  0.12393882  0.18802122  0.26205951     1.59900
O391        O  0.19035309  0.12263411  0.22187582    -0.80000
O392        O  0.11688683  0.21947018  0.29330160    -0.78700
C393        C  0.22446797  0.16178586  0.30446723     0.83800
C394        C  0.21541746  0.24248017  0.22682488     0.83500
O395        O  0.16197646  0.23352087  0.30306431    -0.77600
C396        C  0.10835682  0.20511528  0.19940717     0.84300
O397        O  0.21605959  0.18794367  0.30275485    -0.77700
C398        C  0.19342810  0.13151860  0.19603376     0.84400
C399        C  0.11827609  0.12416623  0.28134896     0.84800
O400        O  0.14504138  0.11908729  0.27703395    -0.80200
C401        C  0.51288362  0.53198962  0.21945976    -0.04600
C402        C  0.53303957  0.53675307  0.19716250     0.09500
C403        C  0.53215268  0.51942738  0.17222336    -0.02000
C404        C  0.51206164  0.49656345  0.17019004    -0.00300
C405        C  0.49358116  0.49025061  0.19353849    -0.03900
C406        C  0.49340386  0.50859538  0.21782530     0.03100
C407        C  0.55610712  0.55912874  0.20076391     0.10000
C408        C  0.55257089  0.52458107  0.14912549     0.35900
C409        C  0.47403708  0.50267747  0.24167373     0.39300
C410        C  0.58191457  0.55203496  0.21542823    -0.04300
C411        C  0.60271545  0.57357710  0.22112382     0.02900
C412        C  0.59815208  0.60221681  0.21154114    -0.03900
C413        C  0.57292125  0.60899166  0.19567438    -0.00100
C414        C  0.55176085  0.58755581  0.19066008    -0.02700
C415        C  0.58684415  0.52255929  0.22493496     0.36600
C416        C  0.56813272  0.63828100  0.18558660     0.40200
C417        C  0.62891362  0.56626040  0.23679081     0.39300
C418        C  0.52506749  0.59484007  0.17590835     0.36300
C419        C  0.51277236  0.55078685  0.24441575     0.37000
C420        C  0.51020485  0.47955808  0.14406698     0.40200
N421        N  0.64980445  0.56050948  0.24931927    -0.37900
N422        N  0.59076212  0.49901075  0.23240909    -0.39400
N423        N  0.56433852  0.66164050  0.17748211    -0.37200
N424        N  0.50365596  0.60055208  0.16427720    -0.39600
N425        N  0.56898884  0.52865321  0.13077822    -0.39400
N426        N  0.50839778  0.46615962  0.12312920    -0.37000
N427        N  0.45853602  0.49792836  0.26064568    -0.38000
N428        N  0.51266602  0.56589712  0.26423956    -0.39700
C429        C  0.27050999  0.74647826  0.36460395    -0.04600
C430        C  0.29855506  0.73640058  0.35836046     0.09500
C431        C  0.30343826  0.72076779  0.33283087    -0.02000
C432        C  0.28017096  0.71391522  0.31430623    -0.00300
C433        C  0.25170056  0.72369878  0.32053111    -0.03900
C434        C  0.24726592  0.74055332  0.34568764     0.03100
C435        C  0.32272130  0.74061306  0.37955138     0.10000
C436        C  0.33251664  0.71116937  0.32597982     0.35900
C437        C  0.21884008  0.75191831  0.35243212     0.39300
C438        C  0.32994267  0.71817710  0.39890146    -0.04300
C439        C  0.35368646  0.72122920  0.41780340     0.02900
C440        C  0.37005766  0.74702769  0.41795854    -0.03900
C441        C  0.36226216  0.76981641  0.39914814    -0.00100
C442        C  0.33885478  0.76649809  0.37981770    -0.02700
C443        C  0.31323486  0.69163787  0.39881774     0.36600
C444        C  0.37838446  0.79668097  0.39959780     0.40200
C445        C  0.36217935  0.69723078  0.43608007     0.39300
C446        C  0.33181885  0.78936211  0.35959900     0.36300
C447        C  0.26551188  0.76240863  0.39099844     0.37000
C448        C  0.28558898  0.69508325  0.28997377     0.40200
N449        N  0.36910236  0.67805853  0.45055926    -0.37900
N450        N  0.29983431  0.67050987  0.39861993    -0.39400
N451        N  0.39099383  0.81828225  0.39991534    -0.37200
N452        N  0.32624770  0.80752769  0.34335685    -0.39600
N453        N  0.35572369  0.70359831  0.32051374    -0.39400
N454        N  0.29007899  0.67983513  0.27078227    -0.37000
N455        N  0.19620487  0.76093037  0.35808461    -0.38000
N456        N  0.26159509  0.77502394  0.41212207    -0.39700
C457        C  0.51798952  0.71424238  0.40216940    -0.04600
C458        C  0.52494595  0.73614055  0.38215895     0.09500
C459        C  0.50932095  0.76227730  0.38220725    -0.02000
C460        C  0.48566240  0.76581522  0.40097216    -0.00300
C461        C  0.47737872  0.74314059  0.41969002    -0.03900
C462        C  0.49433495  0.71774511  0.42100264     0.03100
C463        C  0.54724710  0.73066217  0.35956009     0.10000
C464        C  0.51711757  0.78519349  0.36233574     0.35900
C465        C  0.48691025  0.69478266  0.44095984     0.39300
C466        C  0.53959564  0.71493239  0.33468715    -0.04300
C467        C  0.56075693  0.70804754  0.31400455     0.02900
C468        C  0.58956533  0.71756721  0.31770364    -0.03900
C469        C  0.59701609  0.73410559  0.34217871    -0.00100
C470        C  0.57593812  0.74038284  0.36321126    -0.02700
C471        C  0.50986655  0.70570642  0.33056581     0.36600
C472        C  0.62666991  0.74350593  0.34637606     0.40200
C473        C  0.55283147  0.69124281  0.28884903     0.39300
C474        C  0.58385002  0.75617452  0.38898083     0.36300
C475        C  0.53470395  0.68771885  0.40262479     0.37000
C476        C  0.46983340  0.79286458  0.40103260     0.40200
N477        N  0.54649339  0.67775451  0.26884873    -0.37900
N478        N  0.48610039  0.69847719  0.32742151    -0.39400
N479        N  0.65035674  0.75093160  0.34967045    -0.37200
N480        N  0.59015076  0.76869524  0.40960414    -0.39600
N481        N  0.52336173  0.80350372  0.34651900    -0.39400
N482        N  0.45737853  0.81454524  0.40109434    -0.37000
N483        N  0.48117017  0.67651687  0.45701897    -0.38000
N484        N  0.54809160  0.66659165  0.40279929    -0.39700
C485        C  0.54286117  0.28393662  0.22253554    -0.04600
C486        C  0.55170266  0.30929915  0.20820989     0.09500
C487        C  0.57987867  0.31120804  0.19671243    -0.02000
C488        C  0.59979627  0.28853375  0.20115197    -0.00300
C489        C  0.59124298  0.26345394  0.21633219    -0.03900
C490        C  0.56242250  0.26089305  0.22621926     0.03100
C491        C  0.53192885  0.33477712  0.20699612     0.10000
C492        C  0.58849214  0.33684415  0.18089096     0.35900
C493        C  0.55282202  0.23446822  0.24011876     0.39300
C494        C  0.53336756  0.35592678  0.22878062    -0.04300
C495        C  0.51499782  0.38019756  0.22773801     0.02900
C496        C  0.49520375  0.38356185  0.20472909    -0.03900
C497        C  0.49331635  0.36195789  0.18331064    -0.00100
C498        C  0.51164701  0.33761847  0.18447883    -0.02700
C499        C  0.55394025  0.35267536  0.25219883     0.36600
C500        C  0.47313717  0.36519458  0.15957801     0.40200
C501        C  0.51628498  0.40159017  0.25050670     0.39300
C502        C  0.50999146  0.31562884  0.16233977     0.36300
C503        C  0.51382679  0.28196429  0.23418942     0.37000
C504        C  0.62954182  0.29187825  0.19177862     0.40200
N505        N  0.51731608  0.41865360  0.26866448    -0.37900
N506        N  0.57041414  0.34996276  0.27079693    -0.39400
N507        N  0.45695634  0.36780796  0.14071486    -0.37200
N508        N  0.50871363  0.29803851  0.14470763    -0.39600
N509        N  0.59528044  0.35724773  0.16813591    -0.39400
N510        N  0.65333251  0.29461417  0.18452701    -0.37000
N511        N  0.54513933  0.21335491  0.25110080    -0.38000
N512        N  0.49068402  0.28052058  0.24355171    -0.39700
C513        C  0.57467481  0.14206160  0.37342241    -0.04600
C514        C  0.54569730  0.13754017  0.36485138     0.09500
C515        C  0.53869620  0.13725039  0.33520887    -0.02000
C516        C  0.56049325  0.14142743  0.31434216    -0.00300
C517        C  0.58920583  0.14704240  0.32298150    -0.03900
C518        C  0.59626415  0.14734164  0.35257172     0.03100
C519        C  0.52223370  0.13436510  0.38697144     0.10000
C520        C  0.50881294  0.13400453  0.32623764     0.35900
C521        C  0.62564593  0.15378298  0.36154027     0.39300
C522        C  0.51084266  0.15906537  0.40070823    -0.04300
C523        C  0.48718193  0.15643047  0.41974654     0.02900
C524        C  0.47445657  0.12913658  0.42488519    -0.03900
C525        C  0.48661779  0.10430304  0.41209206    -0.00100
C526        C  0.51057469  0.10688560  0.39337217    -0.02700
C527        C  0.52296530  0.18731528  0.39450674     0.36600
C528        C  0.47402330  0.07617674  0.41773520     0.40200
C529        C  0.47537926  0.18193883  0.43349659     0.39300
C530        C  0.52306777  0.08135109  0.38031932     0.36300
C531        C  0.58209121  0.14185791  0.40375827     0.37000
C532        C  0.55324944  0.14102077  0.28394242     0.40200
N533        N  0.46603230  0.20227669  0.44455820    -0.37900
N534        N  0.53274539  0.20978953  0.38948445    -0.39400
N535        N  0.46395238  0.05373222  0.42227857    -0.37200
N536        N  0.53317227  0.06104145  0.36988228    -0.39600
N537        N  0.48493588  0.13167433  0.31907568    -0.39400
N538        N  0.54761818  0.14063681  0.25966052    -0.37000
N539        N  0.64906576  0.15908257  0.36863895    -0.38000
N540        N  0.58794352  0.14168487  0.42798987    -0.39700
C541        C  0.26828415  0.15571424  0.37366047    -0.04600
C542        C  0.29451366  0.14421057  0.36335287     0.09500
C543        C  0.29738133  0.13734456  0.33390912    -0.02000
C544        C  0.27423535  0.14248794  0.31471520    -0.00300
C545        C  0.24812750  0.15460543  0.32490043    -0.03900
C546        C  0.24523785  0.16112866  0.35448602     0.03100
C547        C  0.31960944  0.14069667  0.38337450     0.10000
C548        C  0.32442702  0.12560656  0.32331256     0.35900
C549        C  0.21852229  0.17333723  0.36532454     0.39300
C550        C  0.32511890  0.11379177  0.39663540    -0.04300
C551        C  0.34904194  0.11058276  0.41527033     0.02900
C552        C  0.36747253  0.13430188  0.42067694    -0.03900
C553        C  0.36131127  0.16145748  0.40825606    -0.00100
C554        C  0.33751865  0.16461875  0.38954096    -0.02700
C555        C  0.30604038  0.08953218  0.39115936     0.36600
C556        C  0.37922130  0.18624466  0.41522626     0.40200
C557        C  0.35484171  0.08288189  0.42874228     0.39300
C558        C  0.33136837  0.19250928  0.37662414     0.36300
C559        C  0.26521581  0.16216349  0.40406087     0.37000
C560        C  0.27787042  0.13680697  0.28423084     0.40200
N561        N  0.35942722  0.06083216  0.43962252    -0.37900
N562        N  0.29072610  0.07023329  0.38680300    -0.39400
N563        N  0.39347426  0.20596559  0.42102556    -0.37200
N564        N  0.32637844  0.21477051  0.36637434    -0.39600
N565        N  0.34601559  0.11623924  0.31487887    -0.39400
N566        N  0.28079948  0.13247483  0.25987983    -0.37000
N567        N  0.19733119  0.18317755  0.37417566    -0.38000
N568        N  0.26293293  0.16722021  0.42834063    -0.39700
C569        C  0.73799014  0.55111652  0.58266316    -0.04600
C570        C  0.71083074  0.55364953  0.59631112     0.09500
C571        C  0.68727204  0.53694257  0.58629053    -0.02000
C572        C  0.69056978  0.51873085  0.56211512    -0.00300
C573        C  0.71761126  0.51667697  0.54813665    -0.03900
C574        C  0.74146482  0.53237619  0.55898835     0.03100
C575        C  0.70680244  0.57485540  0.62045558     0.10000
C576        C  0.65952067  0.53886797  0.60067477     0.35900
C577        C  0.76975327  0.52890846  0.54597013     0.39300
C578        C  0.69243930  0.60124411  0.61532785    -0.04300
C579        C  0.68874264  0.62147175  0.63777674     0.02900
C580        C  0.69985219  0.61573506  0.66580875    -0.03900
C581        C  0.71479596  0.58932989  0.67059901    -0.00100
C582        C  0.71779392  0.56890822  0.64818178    -0.02700
C583        C  0.68115840  0.60744047  0.58678493     0.36600
C584        C  0.72789492  0.58322048  0.69834880     0.40200
C585        C  0.67259866  0.64772981  0.63182862     0.39300
C586        C  0.73187800  0.54143927  0.65372804     0.36300
C587        C  0.76222241  0.56838473  0.59256001     0.37000
C588        C  0.66594626  0.50273585  0.55112037     0.40200
N589        N  0.65976329  0.66864516  0.62690966    -0.37900
N590        N  0.67205751  0.61221075  0.56404346    -0.39400
N591        N  0.73840230  0.57824585  0.72043767    -0.37200
N592        N  0.74302886  0.51948950  0.65816991    -0.39600
N593        N  0.63739054  0.54050968  0.61217246    -0.39400
N594        N  0.64630721  0.48997659  0.54230890    -0.37000
N595        N  0.79235140  0.52592552  0.53571528    -0.38000
N596        N  0.78153631  0.58220445  0.60043819    -0.39700
C597        C  0.74943144  0.55170855  0.41167333    -0.04600
C598        C  0.72463451  0.55071305  0.39397523     0.09500
C599        C  0.70326971  0.52951388  0.39893099    -0.02000
C600        C  0.70569846  0.51063869  0.42265276    -0.00300
C601        C  0.72950298  0.51296554  0.44164796    -0.03900
C602        C  0.75196985  0.53271292  0.43535874     0.03100
C603        C  0.71999791  0.57284262  0.37094042     0.10000
C604        C  0.67825387  0.52787157  0.38009777     0.35900
C605        C  0.77775973  0.53329024  0.45315173     0.39300
C606        C  0.72781803  0.56686613  0.34223410    -0.04300
C607        C  0.72041049  0.58640054  0.32006158     0.02900
C608        C  0.70567311  0.61228301  0.32661211    -0.03900
C609        C  0.69844273  0.61856526  0.35546770    -0.00100
C610        C  0.70556888  0.59886924  0.37756245    -0.02700
C611        C  0.74285396  0.54023337  0.33552579     0.36600
C612        C  0.68348590  0.64523365  0.36239091     0.40200
C613        C  0.72617494  0.57893257  0.29032931     0.39300
C614        C  0.69748914  0.60499796  0.40709534     0.36300
C615        C  0.77193768  0.57273962  0.40583476     0.37000
C616        C  0.68309122  0.48958496  0.42811713     0.40200
N617        N  0.73038988  0.57271988  0.26659102    -0.37900
N618        N  0.75489392  0.51897471  0.33026022    -0.39400
N619        N  0.67151818  0.66648667  0.36786844    -0.37200
N620        N  0.69105346  0.60978942  0.43067538    -0.39600
N621        N  0.65835368  0.52667452  0.36499730    -0.39400
N622        N  0.66516290  0.47265852  0.43240441    -0.37000
N623        N  0.79850568  0.53359455  0.46712575    -0.38000
N624        N  0.78986749  0.58955548  0.40113967    -0.39700
C625        C  0.57638089  0.75336631  0.63451121    -0.04600
C626        C  0.54908040  0.73981221  0.63576351     0.09500
C627        C  0.54312327  0.72016244  0.65821826    -0.02000
C628        C  0.56464122  0.71304223  0.67858461    -0.00300
C629        C  0.59249068  0.72593473  0.67706406    -0.03900
C630        C  0.59800683  0.74653720  0.65504893     0.03100
C631        C  0.52648441  0.74521985  0.61313414     0.10000
C632        C  0.51465899  0.70701985  0.66017591     0.35900
C633        C  0.62570058  0.76119770  0.65362308     0.39300
C634        C  0.52124976  0.72415944  0.59177817    -0.04300
C635        C  0.49691502  0.72651871  0.57352289     0.02900
C636        C  0.47751315  0.74994732  0.57658138    -0.03900
C637        C  0.48373622  0.77187899  0.59682264    -0.00100
C638        C  0.50826682  0.76961975  0.61488109    -0.02700
C639        C  0.54041147  0.69945333  0.58937915     0.36600
C640        C  0.46455455  0.79652288  0.59940434     0.40200
C641        C  0.49103733  0.70397766  0.55263451     0.39300
C642        C  0.51437600  0.79198678  0.63583720     0.36300
C643        C  0.58216499  0.77432902  0.61199558     0.37000
C644        C  0.55818365  0.69136338  0.70028925     0.40200
N645        N  0.48634980  0.68603332  0.53593926    -0.37900
N646        N  0.55568398  0.67972737  0.58759781    -0.39400
N647        N  0.44914702  0.81611090  0.60148509    -0.37200
N648        N  0.51944044  0.80991487  0.65243568    -0.39600
N649        N  0.49194077  0.69660924  0.66165721    -0.39400
N650        N  0.55297693  0.67409507  0.71758324    -0.37000
N651        N  0.64774366  0.77298245  0.65225032    -0.38000
N652        N  0.58667636  0.79118920  0.59412388    -0.39700
C653        C  0.51481496  0.53321157  0.77875582    -0.04600
C654        C  0.53537561  0.53949339  0.80034359     0.09500
C655        C  0.53681041  0.52205159  0.82521951    -0.02000
C656        C  0.51873619  0.49762138  0.82789261    -0.00300
C657        C  0.49931201  0.49028804  0.80555709    -0.03900
C658        C  0.49693092  0.50859142  0.78123892     0.03100
C659        C  0.55739663  0.56273263  0.79545998     0.10000
C660        C  0.55728566  0.52903520  0.84784004     0.35900
C661        C  0.47684479  0.50156100  0.75826656     0.39300
C662        C  0.55207599  0.59140978  0.80401915    -0.04300
C663        C  0.57243973  0.61339985  0.79789476     0.02900
C664        C  0.59846266  0.60684759  0.78291455    -0.03900
C665        C  0.60387499  0.57759784  0.77511863    -0.00100
C666        C  0.58347713  0.55583320  0.78147131    -0.02700
C667        C  0.52551000  0.59820704  0.81914695     0.36600
C668        C  0.62990026  0.56953100  0.75962145     0.40200
C669        C  0.56651256  0.64259753  0.80757799     0.39300
C670        C  0.58909455  0.52609502  0.77324431     0.36300
C671        C  0.51261764  0.55183512  0.75369206     0.37000
C672        C  0.51992831  0.48021647  0.85382004     0.40200
N673        N  0.56162438  0.66586471  0.81527110    -0.37900
N674        N  0.50433397  0.60358281  0.83126668    -0.39400
N675        N  0.65064611  0.56292245  0.74735944    -0.37200
N676        N  0.59345899  0.50235865  0.76677078    -0.39600
N677        N  0.57359595  0.53462350  0.86591862    -0.39400
N678        N  0.52087634  0.46663447  0.87472739    -0.37000
N679        N  0.46083570  0.49601616  0.73990410    -0.38000
N680        N  0.51092284  0.56685860  0.73381504    -0.39700
C681        C  0.29938176  0.73063858  0.66196861    -0.04600
C682        C  0.29547708  0.72707101  0.63213804     0.09500
C683        C  0.26776195  0.72049768  0.62136243    -0.02000
C684        C  0.24401881  0.71699821  0.64030932    -0.00300
C685        C  0.24789486  0.71927697  0.67071389    -0.03900
C686        C  0.27587766  0.72731039  0.68109820     0.03100
C687        C  0.32062438  0.73118722  0.61206926     0.10000
C688        C  0.26382750  0.71709801  0.59054620     0.35900
C689        C  0.28092863  0.73317981  0.71139630     0.39300
C690        C  0.33584086  0.70705964  0.60127609    -0.04300
C691        C  0.36056048  0.71107969  0.58386434     0.02900
C692        C  0.37030350  0.73922547  0.57724778    -0.03900
C693        C  0.35507008  0.76335033  0.58796421    -0.00100
C694        C  0.33010466  0.75934336  0.60499479    -0.02700
C695        C  0.32635803  0.67810334  0.60858545     0.36600
C696        C  0.36557957  0.79230079  0.58209420     0.40200
C697        C  0.37658723  0.68629237  0.57343030     0.39300
C698        C  0.31420377  0.78418182  0.61550047     0.36300
C699        C  0.32798299  0.73743664  0.67306128     0.37000
C700        C  0.21572414  0.71160870  0.62789066     0.40200
N701        N  0.38955892  0.66663050  0.56510802    -0.37900
N702        N  0.31876319  0.65498629  0.61438767    -0.39400
N703        N  0.37409117  0.81538912  0.57758112    -0.37200
N704        N  0.30140924  0.80392333  0.62390640    -0.39600
N705        N  0.26087022  0.71423455  0.56597175    -0.39400
N706        N  0.19322763  0.70772372  0.61761382    -0.37000
N707        N  0.28510381  0.73796638  0.73550078    -0.38000
N708        N  0.35078732  0.74280590  0.68187938    -0.39700
C709        C  0.10682981  0.53371133  0.40822724    -0.04600
C710        C  0.13158101  0.55140122  0.40615029     0.09500
C711        C  0.15349068  0.54946023  0.42725398    -0.02000
C712        C  0.15024686  0.53050806  0.45085653    -0.00300
C713        C  0.12515283  0.51318154  0.45330390    -0.03900
C714        C  0.10366193  0.51456250  0.43164011     0.03100
C715        C  0.13444193  0.57232914  0.38177622     0.10000
C716        C  0.17923511  0.56722532  0.42472143     0.35900
C717        C  0.07778502  0.49695198  0.43390525     0.39300
C718        C  0.12034587  0.59934178  0.38297614    -0.04300
C719        C  0.12302608  0.61911601  0.35999960     0.02900
C720        C  0.14046838  0.61226904  0.33597060    -0.03900
C721        C  0.15469636  0.58518262  0.33492575    -0.00100
C722        C  0.15136744  0.56518635  0.35760636    -0.02700
C723        C  0.10347026  0.60694249  0.40814794     0.36600
C724        C  0.17406992  0.57837794  0.31132643     0.40200
C725        C  0.10738980  0.64629432  0.36089422     0.39300
C726        C  0.16572254  0.53734093  0.35635138     0.36300
C727        C  0.08443363  0.53556526  0.38639156     0.37000
C728        C  0.17276905  0.52878993  0.47257479     0.40200
N729        N  0.09490514  0.66796173  0.36149756    -0.37900
N730        N  0.09011176  0.61304650  0.42828769    -0.39400
N731        N  0.18969000  0.57298981  0.29264576    -0.37200
N732        N  0.17718678  0.51513631  0.35541000    -0.39600
N733        N  0.19977646  0.58136196  0.42251775    -0.39400
N734        N  0.19072781  0.52750403  0.48992018    -0.37000
N735        N  0.05722911  0.48278547  0.43573357    -0.38000
N736        N  0.06655279  0.53715703  0.36899541    -0.39700
C737        C  0.12794794  0.51799119  0.60626452    -0.04600
C738        C  0.11138938  0.54350215  0.60815110     0.09500
C739        C  0.09072735  0.54979125  0.58668653    -0.02000
C740        C  0.08808005  0.53175590  0.56239184    -0.00300
C741        C  0.10686695  0.50789851  0.55889863    -0.03900
C742        C  0.12613300  0.50048444  0.58147287     0.03100
C743        C  0.11863782  0.56581769  0.63028507     0.10000
C744        C  0.07321094  0.57567087  0.58900988     0.35900
C745        C  0.14555357  0.47606323  0.57843730     0.39300
C746        C  0.14004126  0.58659316  0.62399437    -0.04300
C747        C  0.14716953  0.60802175  0.64429799     0.02900
C748        C  0.13208505  0.60967332  0.67075686    -0.03900
C749        C  0.11051540  0.58876548  0.67699119    -0.00100
C750        C  0.10413076  0.56669511  0.65692917    -0.02700
C751        C  0.15483165  0.58580110  0.59645283     0.36600
C752        C  0.09437668  0.59023773  0.70370541     0.40200
C753        C  0.17126054  0.62726189  0.63847483     0.39300
C754        C  0.08275032  0.54477031  0.66364095     0.36300
C755        C  0.14767943  0.51045107  0.62939381     0.37000
C756        C  0.06638898  0.53807141  0.54067659     0.40200
N757        N  0.19070948  0.64232523  0.63390936    -0.37900
N758        N  0.16646031  0.58513948  0.57441955    -0.39400
N759        N  0.08143916  0.59140242  0.72498628    -0.37200
N760        N  0.06581587  0.52714296  0.66899993    -0.39600
N761        N  0.05938958  0.59642156  0.59092181    -0.39400
N762        N  0.04906626  0.54304861  0.52335051    -0.37000
N763        N  0.16109796  0.45662650  0.57599265    -0.38000
N764        N  0.16325704  0.50430887  0.64794884    -0.39700
C765        C  0.57838666  0.31685610  0.77381295    -0.04600
C766        C  0.55418574  0.31019619  0.79104881     0.09500
C767        C  0.55135388  0.28226977  0.80295764    -0.02000
C768        C  0.57240223  0.26089890  0.79720128    -0.00300
C769        C  0.59646418  0.26743218  0.77954273    -0.03900
C770        C  0.59948664  0.29566158  0.76816750     0.03100
C771        C  0.53205827  0.33308806  0.79676627     0.10000
C772        C  0.52649476  0.27546415  0.82072449     0.35900
C773        C  0.62467180  0.30316473  0.75105886     0.39300
C774        C  0.51064741  0.33941403  0.77599401    -0.04300
C775        C  0.49292325  0.36407955  0.77911402     0.02900
C776        C  0.49622812  0.38225887  0.80335783    -0.03900
C777        C  0.51575860  0.37417204  0.82541340    -0.00100
C778        C  0.53403453  0.35005794  0.82184643    -0.02700
C779        C  0.50738928  0.32079411  0.75111830     0.36600
C780        C  0.51650329  0.39015432  0.85219700     0.40200
C781        C  0.47188440  0.37110161  0.75699940     0.39300
C782        C  0.55550997  0.34313625  0.84359414     0.36300
C783        C  0.58150548  0.34566885  0.76182692     0.37000
C784        C  0.56849254  0.23189116  0.80836585     0.40200
N785        N  0.45496104  0.37657669  0.73943072    -0.37900
N786        N  0.50480520  0.30579167  0.73137366    -0.39400
N787        N  0.51693075  0.40236024  0.87390163    -0.37200
N788        N  0.57271256  0.33759246  0.86086820    -0.39600
N789        N  0.50665672  0.27004191  0.83491333    -0.39400
N790        N  0.56514982  0.20874342  0.81721264    -0.37000
N791        N  0.64477432  0.30908396  0.73743835    -0.38000
N792        N  0.58387494  0.36864861  0.75224817    -0.39700
C793        C  0.50153136  0.11489879  0.61713367    -0.04600
C794        C  0.51433652  0.14254277  0.61920346     0.09500
C795        C  0.50340599  0.16561065  0.60241087    -0.02000
C796        C  0.47911982  0.16130611  0.58456695    -0.00300
C797        C  0.46649791  0.13363851  0.58244038    -0.03900
C798        C  0.47807200  0.11033453  0.59831717     0.03100
C799        C  0.53887930  0.14753641  0.63962281     0.10000
C800        C  0.51702600  0.19382937  0.60366716     0.35900
C801        C  0.46582322  0.08163311  0.59517108     0.39300
C802        C  0.56641928  0.13558743  0.63401662    -0.04300
C803        C  0.58941895  0.14012241  0.65347196     0.02900
C804        C  0.58538382  0.15789286  0.67779675    -0.03900
C805        C  0.55786895  0.16988668  0.68338932    -0.00100
C806        C  0.53451206  0.16410915  0.66474714    -0.02700
C807        C  0.57116903  0.11905242  0.60794334     0.36600
C808        C  0.55349252  0.18784979  0.70860228     0.40200
C809        C  0.61741479  0.12706812  0.64809125     0.39300
C810        C  0.50586886  0.17495108  0.67153903     0.36300
C811        C  0.51210102  0.09130243  0.63485132     0.37000
C812        C  0.46638678  0.18553044  0.56923401     0.40200
N813        N  0.63968991  0.11647790  0.64390788    -0.37900
N814        N  0.57483539  0.10584880  0.58713223    -0.39400
N815        N  0.55005460  0.20223309  0.72866709    -0.37200
N816        N  0.48298727  0.18351143  0.67691745    -0.39600
N817        N  0.52784720  0.21636284  0.60466691    -0.39400
N818        N  0.45599448  0.20479299  0.55712086    -0.37000
N819        N  0.45610445  0.05874414  0.59247550    -0.38000
N820        N  0.52058303  0.07250105  0.64898697    -0.39700
C821        C  0.73016481  0.33792472  0.40118236    -0.04600
C822        C  0.70918749  0.31582241  0.40217024     0.09500
C823        C  0.69156514  0.31278697  0.42673790    -0.02000
C824        C  0.69471918  0.33193504  0.45015348    -0.00300
C825        C  0.71619048  0.35384188  0.44953923    -0.03900
C826        C  0.73383487  0.35673906  0.42480478     0.03100
C827        C  0.70517745  0.29613879  0.37691546     0.10000
C828        C  0.67044856  0.28961109  0.42802349     0.35900
C829        C  0.75647976  0.37842278  0.42393064     0.39300
C830        C  0.72270246  0.27140541  0.37370324    -0.04300
C831        C  0.71861583  0.25268554  0.35003645     0.02900
C832        C  0.69686763  0.25862610  0.32933012    -0.03900
C833        C  0.68006348  0.28415151  0.33216228    -0.00100
C834        C  0.68396713  0.30251364  0.35604979    -0.02700
C835        C  0.74452153  0.26491505  0.39522802     0.36600
C836        C  0.65910503  0.29207581  0.31019041     0.40200
C837        C  0.73613118  0.22679151  0.34775460     0.39300
C838        C  0.66586864  0.32790144  0.35944956     0.36300
C839        C  0.74821550  0.34098453  0.37584560     0.37000
C840        C  0.67554854  0.32923196  0.47473547     0.40200
N841        N  0.75015192  0.20616356  0.34589281    -0.37900
N842        N  0.76189380  0.25975588  0.41244973    -0.39400
N843        N  0.64242556  0.29848311  0.29269294    -0.37200
N844        N  0.65136027  0.34806352  0.36232903    -0.39600
N845        N  0.65372942  0.27101612  0.42908519    -0.39400
N846        N  0.66035849  0.32701278  0.49440241    -0.37000
N847        N  0.77452689  0.39574811  0.42317254    -0.38000
N848        N  0.76256315  0.34323864  0.35557246    -0.39700
C849        C  0.73191872  0.30635826  0.65490695    -0.04600
C850        C  0.72385121  0.30164159  0.62601699     0.09500
C851        C  0.70962509  0.27583080  0.61820755    -0.02000
C852        C  0.70226557  0.25538780  0.63943151    -0.00300
C853        C  0.70932064  0.26056749  0.66854589    -0.03900
C854        C  0.72455440  0.28588374  0.67621955     0.03100
C855        C  0.72880302  0.32432084  0.60371103     0.10000
C856        C  0.70242360  0.27046610  0.58826616     0.35900
C857        C  0.73136540  0.29153090  0.70617044     0.39300
C858        C  0.75371619  0.32337913  0.58628804    -0.04300
C859        C  0.75576291  0.34135364  0.56183965     0.02900
C860        C  0.73302782  0.36057210  0.55502404    -0.03900
C861        C  0.70915337  0.36310618  0.57385445    -0.00100
C862        C  0.70701516  0.34490444  0.59808378    -0.02700
C863        C  0.77676158  0.30326576  0.59314992     0.36600
C864        C  0.68596906  0.38328583  0.56744104     0.40200
C865        C  0.78093017  0.33968260  0.54333362     0.39300
C866        C  0.68179604  0.34643085  0.61658639     0.36300
C867        C  0.74755124  0.33239215  0.66259984     0.37000
C868        C  0.68749804  0.22892690  0.63131403     0.40200
N869        N  0.80099419  0.33835265  0.52852744    -0.37900
N870        N  0.79513402  0.28724782  0.59882077    -0.39400
N871        N  0.66756685  0.39946227  0.56231756    -0.37200
N872        N  0.66168854  0.34761497  0.63135124    -0.39600
N873        N  0.69684805  0.26621816  0.56434719    -0.39400
N874        N  0.67573688  0.20780564  0.62490371    -0.37000
N875        N  0.73664370  0.29613502  0.73008841    -0.38000
N876        N  0.76017385  0.35312415  0.66862613    -0.39700
C877        C  0.29987012  0.14434846  0.66980668    -0.04600
C878        C  0.29174464  0.13433799  0.64224800     0.09500
C879        C  0.26220088  0.12975052  0.63599503    -0.02000
C880        C  0.24083386  0.13628533  0.65675425    -0.00300
C881        C  0.24892396  0.14775999  0.68377740    -0.03900
C882        C  0.27854066  0.15118999  0.69042319     0.03100
C883        C  0.31430585  0.13028007  0.61937636     0.10000
C884        C  0.25385087  0.11895484  0.60790502     0.35900
C885        C  0.28701322  0.16174365  0.71859793     0.39300
C886        C  0.32822878  0.10337084  0.61587757    -0.04300
C887        C  0.35118723  0.10045881  0.59599583     0.02900
C888        C  0.36023195  0.12440037  0.57933745    -0.03900
C889        C  0.34563717  0.15105901  0.58221722    -0.00100
C890        C  0.32280753  0.15398493  0.60216534    -0.02700
C891        C  0.31961822  0.07903256  0.63359061     0.36600
C892        C  0.35537008  0.17599787  0.56591701     0.40200
C893        C  0.36626624  0.07312318  0.59339768     0.39300
C894        C  0.30884610  0.18177872  0.60596990     0.36300
C895        C  0.33024353  0.14798542  0.67676514     0.37000
C896        C  0.21049433  0.13229278  0.64985441     0.40200
N897        N  0.37837245  0.05133871  0.59135944    -0.37900
N898        N  0.31273317  0.05967677  0.64782916    -0.39400
N899        N  0.36331467  0.19585672  0.55297276    -0.37200
N900        N  0.29776268  0.20395708  0.60917998    -0.39600
N901        N  0.24729677  0.11033583  0.58544987    -0.39400
N902        N  0.18630744  0.12909877  0.64422042    -0.37000
N903        N  0.29361404  0.17010322  0.74113956    -0.38000
N904        N  0.35449304  0.15079918  0.68232991    -0.39700
C905        C  0.13327178  0.33386592  0.40505039    -0.04600
C906        C  0.10843666  0.31879340  0.39566444     0.09500
C907        C  0.08173700  0.32335609  0.40965054    -0.02000
C908        C  0.08027254  0.34158194  0.43398678    -0.00300
C909        C  0.10536778  0.35586322  0.44394745    -0.03900
C910        C  0.13168037  0.35253445  0.42894178     0.03100
C911        C  0.11118441  0.29664284  0.37234397     0.10000
C912        C  0.05597587  0.30882788  0.39926500     0.35900
C913        C  0.15744504  0.36738692  0.43894096     0.39300
C914        C  0.11595037  0.26739708  0.37968762    -0.04300
C915        C  0.12226146  0.24699914  0.35806471     0.02900
C916        C  0.12405960  0.25575161  0.32902419    -0.03900
C917        C  0.11786347  0.28466771  0.32148738    -0.00100
C918        C  0.11138157  0.30507575  0.34312490    -0.02700
C919        C  0.11526571  0.25851517  0.40963952     0.36600
C920        C  0.11866247  0.29348181  0.29152913     0.40200
C921        C  0.12736715  0.21702546  0.36569688     0.39300
C922        C  0.10553914  0.33490229  0.33550410     0.36300
C923        C  0.16075638  0.32921338  0.39076417     0.37000
C924        C  0.05317630  0.34506090  0.44926660     0.40200
N925        N  0.13125593  0.19306190  0.37171090    -0.37900
N926        N  0.11470733  0.25146718  0.43354856    -0.39400
N927        N  0.11920930  0.30050142  0.26760954    -0.37200
N928        N  0.10084121  0.35873337  0.32952718    -0.39600
N929        N  0.03542570  0.29728784  0.39085089    -0.39400
N930        N  0.03155350  0.34778894  0.46148858    -0.37000
N931        N  0.17791929  0.37929660  0.44701549    -0.38000
N932        N  0.18265637  0.32537142  0.37935941    -0.39700
C933        C  0.11838631  0.30058485  0.65057480    -0.04600
C934        C  0.13112323  0.29484059  0.62360278     0.09500
C935        C  0.14855520  0.27011201  0.62005678    -0.02000
C936        C  0.15310633  0.25107794  0.64334151    -0.00300
C937        C  0.14093378  0.25712031  0.67060939    -0.03900
C938        C  0.12354366  0.28197239  0.67413741     0.03100
C939        C  0.12583794  0.31463357  0.59868037     0.10000
C940        C  0.16193936  0.26439080  0.59241485     0.35900
C941        C  0.11208816  0.28917764  0.70226662     0.39300
C942        C  0.14626861  0.33611734  0.59153742    -0.04300
C943        C  0.14172919  0.35409781  0.56738714     0.02900
C944        C  0.11650689  0.35082070  0.55033845    -0.03900
C945        C  0.09571269  0.32973700  0.55809982    -0.00100
C946        C  0.10054518  0.31154351  0.58198598    -0.02700
C947        C  0.17215364  0.33943143  0.60892558     0.36600
C948        C  0.06902585  0.32703572  0.54182411     0.40200
C949        C  0.16345799  0.37539673  0.55973662     0.39300
C950        C  0.07964632  0.28932015  0.58928188     0.36300
C951        C  0.10023586  0.32589309  0.65404385     0.37000
C952        C  0.16975148  0.22484678  0.63901021     0.40200
N953        N  0.18072349  0.39249051  0.55374178    -0.37900
N954        N  0.19281531  0.34202999  0.62278705    -0.39400
N955        N  0.04774516  0.32485366  0.52884816    -0.37200
N956        N  0.06305110  0.27153742  0.59514723    -0.39600
N957        N  0.17275799  0.25996713  0.57040898    -0.39400
N958        N  0.18288774  0.20385474  0.63554466    -0.37000
N959        N  0.10310714  0.29510097  0.72473442    -0.38000
N960        N  0.08568276  0.34606240  0.65662787    -0.39700
C961        C  0.32233995  0.33592446  0.22038457    -0.04600
C962        C  0.29866232  0.33336180  0.20134874     0.09500
C963        C  0.29473277  0.35409294  0.17940816    -0.02000
C964        C  0.31349721  0.37810132  0.17743720    -0.00300
C965        C  0.33598405  0.38186390  0.19782635    -0.03900
C966        C  0.34072678  0.36024579  0.21891215     0.03100
C967        C  0.27634066  0.31039624  0.20629245     0.10000
C968        C  0.27079050  0.35109100  0.15942446     0.35900
C969        C  0.36345668  0.36376811  0.24019743     0.39300
C970        C  0.25434394  0.31508451  0.22676578    -0.04300
C971        C  0.23396558  0.29323118  0.23277635     0.02900
C972        C  0.23545576  0.26629862  0.21841843    -0.03900
C973        C  0.25698210  0.26199406  0.19717582    -0.00100
C974        C  0.27732966  0.28402003  0.19115646    -0.02700
C975        C  0.25278746  0.34253474  0.24174871     0.36600
C976        C  0.25904676  0.23452496  0.18233111     0.40200
C977        C  0.21108633  0.29879802  0.25341716     0.39300
C978        C  0.29959935  0.27947558  0.16969596     0.36300
C979        C  0.32722894  0.31381725  0.24203136     0.37000
C980        C  0.30949166  0.39910145  0.15455607     0.40200
N981        N  0.19285648  0.30323442  0.26987768    -0.37900
N982        N  0.25160681  0.36444691  0.25365477    -0.39400
N983        N  0.26069783  0.21260571  0.17048534    -0.37200
N984        N  0.31734945  0.27592911  0.15252112    -0.39600
N985        N  0.25164882  0.34860019  0.14353136    -0.39400
N986        N  0.30631549  0.41588222  0.13632007    -0.37000
N987        N  0.38157007  0.36662797  0.25718802    -0.38000
N988        N  0.33114593  0.29608610  0.25920007    -0.39700
C989        C  0.30619408  0.52148986  0.23674532    -0.04600
C990        C  0.30122351  0.53851103  0.21190560     0.09500
C991        C  0.31562310  0.53162711  0.18599640    -0.02000
C992        C  0.33364026  0.50707691  0.18459628    -0.00300
C993        C  0.33698503  0.48903528  0.20892195    -0.03900
C994        C  0.32375443  0.49663254  0.23516087     0.03100
C995        C  0.27922788  0.56234324  0.21270809     0.10000
C996        C  0.31141581  0.54942144  0.16060016     0.35900
C997        C  0.32810717  0.47871195  0.26044641     0.39300
C998        C  0.28775273  0.59153092  0.21156154    -0.04300
C999        C  0.26689673  0.61378085  0.21335522     0.02900
C1000       C  0.23721238  0.60714131  0.21861714    -0.03900
C1001       C  0.22872667  0.57747200  0.21797087    -0.00100
C1002       C  0.24960725  0.55545290  0.21471983    -0.02700
C1003       C  0.31822642  0.59870772  0.20906718     0.36600
C1004       C  0.19861389  0.56888611  0.22044765     0.40200
C1005       C  0.27644459  0.64332184  0.20887009     0.39300
C1006       C  0.24065099  0.52535810  0.21370562     0.36300
C1007       C  0.29289464  0.52943609  0.26386393     0.37000
C1008       C  0.34812265  0.49985230  0.15786902     0.40200
N1009       N  0.28419037  0.66677873  0.20487716    -0.37900
N1010       N  0.34251184  0.60443157  0.20700791    -0.39400
N1011       N  0.17470433  0.56170332  0.22243831    -0.37200
N1012       N  0.23364791  0.50135640  0.21293773    -0.39600
N1013       N  0.30829285  0.56377527  0.14040551    -0.39400
N1014       N  0.35979816  0.49406033  0.13662849    -0.37000
N1015       N  0.33162759  0.46436328  0.28057954    -0.38000
N1016       N  0.28224074  0.53583030  0.28546091    -0.39700
C1017       C  0.30106378  0.35505328  0.83216839    -0.04600
C1018       C  0.30355534  0.33781271  0.80727890     0.09500
C1019       C  0.32454445  0.34451002  0.78632332    -0.02000
C1020       C  0.34236864  0.36892950  0.78971948    -0.00300
C1021       C  0.33941581  0.38673384  0.81425263    -0.03900
C1022       C  0.31884475  0.37960634  0.83558870     0.03100
C1023       C  0.28249774  0.31399519  0.80176407     0.10000
C1024       C  0.32704669  0.32674798  0.76074032     0.35900
C1025       C  0.31555046  0.39788592  0.86069857     0.39300
C1026       C  0.25771259  0.31951948  0.78488262    -0.04300
C1027       C  0.23842067  0.29693423  0.77823884     0.02900
C1028       C  0.24388236  0.26863045  0.78839976    -0.03900
C1029       C  0.26850135  0.26320079  0.80562416    -0.00100
C1030       C  0.28785839  0.28585228  0.81217302    -0.02700
C1031       C  0.25243111  0.34844020  0.77391830     0.36600
C1032       C  0.27454772  0.23409134  0.81555945     0.40200
C1033       C  0.21267413  0.30296823  0.76131523     0.39300
C1034       C  0.31375056  0.28013503  0.82888497     0.36300
C1035       C  0.27967311  0.34785619  0.85383150     0.37000
C1036       C  0.36254818  0.37671287  0.76707066     0.40200
N1037       N  0.19213677  0.30781967  0.74786076    -0.37900
N1038       N  0.24841728  0.37151099  0.76512238    -0.39400
N1039       N  0.27933929  0.21082025  0.82338383    -0.37200
N1040       N  0.33449797  0.27560658  0.84211658    -0.39600
N1041       N  0.32893716  0.31259165  0.74032030    -0.39400
N1042       N  0.37858874  0.38307244  0.74903144    -0.37000
N1043       N  0.31279140  0.41256700  0.88065000    -0.38000
N1044       N  0.26261283  0.34200274  0.87109509    -0.39700
C1045       C  0.31801609  0.53701384  0.82033995    -0.04600
C1046       C  0.30404340  0.54090502  0.79357619     0.09500
C1047       C  0.30919023  0.52125598  0.77093340    -0.02000
C1048       C  0.32781067  0.49753507  0.77523849    -0.00300
C1049       C  0.34075718  0.49294189  0.80239533    -0.03900
C1050       C  0.33609802  0.51289038  0.82485330     0.03100
C1051       C  0.28332348  0.56536205  0.78941862     0.10000
C1052       C  0.29469727  0.52503368  0.74346517     0.35900
C1053       C  0.34916076  0.50806816  0.85285249     0.39300
C1054       C  0.29187092  0.59019891  0.77405907    -0.04300
C1055       C  0.27186234  0.61259154  0.76870796     0.02900
C1056       C  0.24316724  0.61062227  0.77945256    -0.03900
C1057       C  0.23524624  0.58624520  0.79623976    -0.00100
C1058       C  0.25509098  0.56353799  0.80071892    -0.02700
C1059       C  0.32137356  0.59257049  0.76367222     0.36600
C1060       C  0.20693621  0.58468081  0.80964458     0.40200
C1061       C  0.28079588  0.63701045  0.75117457     0.39300
C1062       C  0.24640526  0.53804949  0.81678393     0.36300
C1063       C  0.31336142  0.55768306  0.84330210     0.37000
C1064       C  0.33355122  0.47762484  0.75183605     0.40200
N1065       N  0.28802630  0.65645112  0.73721055    -0.37900
N1066       N  0.34494387  0.59441577  0.75550659    -0.39400
N1067       N  0.18441611  0.58342908  0.82043662    -0.37200
N1068       N  0.23953777  0.51771605  0.82960875    -0.39600
N1069       N  0.28309083  0.52799096  0.72156357    -0.39400
N1070       N  0.33833812  0.46170848  0.73325641    -0.37000
N1071       N  0.35950151  0.50419174  0.87523310    -0.38000
N1072       N  0.30951746  0.57426521  0.86151622    -0.39700
C1073       C  0.82362670  0.21536706  0.09634089    -0.04600
C1074       C  0.81475493  0.23854778  0.11394690     0.09500
C1075       C  0.82932444  0.26530004  0.11209993    -0.02000
C1076       C  0.85367060  0.26832567  0.09400288    -0.00300
C1077       C  0.86354917  0.24463376  0.07759433    -0.03900
C1078       C  0.84798089  0.21835859  0.07825534     0.03100
C1079       C  0.79135078  0.23405325  0.13586547     0.10000
C1080       C  0.81937515  0.28960051  0.12906136     0.35900
C1081       C  0.85756636  0.19411095  0.06100157     0.39300
C1082       C  0.79846468  0.22301475  0.16322174    -0.04300
C1083       C  0.77673069  0.21822153  0.18403516     0.02900
C1084       C  0.74698635  0.22286949  0.17718028    -0.03900
C1085       C  0.74019403  0.23473714  0.14960522    -0.00100
C1086       C  0.76230647  0.24036587  0.12928606    -0.02700
C1087       C  0.82837245  0.21584505  0.16969174     0.36600
C1088       C  0.71061549  0.24187520  0.14187057     0.40200
C1089       C  0.78567424  0.20863496  0.21244673     0.39300
C1090       C  0.75522029  0.25230333  0.10124150     0.36300
C1091       C  0.80784722  0.18829239  0.09726689     0.37000
C1092       C  0.86862197  0.29582594  0.09220697     0.40200
N1093       N  0.79313119  0.20146757  0.23516438    -0.37900
N1094       N  0.85215926  0.20985681  0.17471770    -0.39400
N1095       N  0.68708662  0.24759077  0.13546928    -0.37200
N1096       N  0.74969344  0.26183505  0.07884900    -0.39600
N1097       N  0.81133045  0.30904429  0.14247652    -0.39400
N1098       N  0.88051505  0.31778094  0.09062880    -0.37000
N1099       N  0.86519841  0.17478239  0.04718824    -0.38000
N1100       N  0.79508141  0.16678816  0.09804856    -0.39700
C1101       C  0.06900405  0.23985881  0.13554047    -0.04600
C1102       C  0.04202047  0.22568219  0.13642320     0.09500
C1103       C  0.03682893  0.20455650  0.15775689    -0.02000
C1104       C  0.05844000  0.19769169  0.17817186    -0.00300
C1105       C  0.08539746  0.21238232  0.17782888    -0.03900
C1106       C  0.09043397  0.23361821  0.15634492     0.03100
C1107       C  0.01883129  0.23303971  0.11500087     0.10000
C1108       C  0.00917092  0.18969892  0.15853866     0.35900
C1109       C  0.11730128  0.24983962  0.15601621     0.39300
C1110       C  0.01254162  0.21394849  0.09217103    -0.04300
C1111       C  0.98877958  0.21931065  0.07380931     0.02900
C1112       C  0.97126875  0.24402402  0.07799642    -0.03900
C1113       C  0.97896524  0.26422937  0.09948221    -0.00100
C1114       C  0.00251304  0.25864050  0.11806365    -0.02700
C1115       C  0.03040874  0.18856931  0.08784533     0.36600
C1116       C  0.96286665  0.29097798  0.10221379     0.40200
C1117       C  0.98187323  0.19887182  0.05116990     0.39300
C1118       C  0.00974256  0.27902474  0.14064499     0.36300
C1119       C  0.07476733  0.26072192  0.11292072     0.37000
C1120       C  0.05308546  0.17471369  0.19881947     0.40200
N1121       N  0.97642990  0.18270930  0.03296286    -0.37900
N1122       N  0.04471687  0.16835331  0.08442387    -0.39400
N1123       N  0.95020186  0.31243667  0.10430284    -0.37200
N1124       N  0.01568718  0.29532344  0.15857394    -0.39600
N1125       N  0.98715521  0.17778618  0.15904051    -0.39400
N1126       N  0.04876548  0.15635319  0.21521986    -0.37000
N1127       N  0.13870620  0.26282469  0.15576657    -0.38000
N1128       N  0.07930453  0.27729344  0.09479412    -0.39700
C1129       C  0.76944443  0.64892052  0.87195433    -0.04600
C1130       C  0.79383510  0.63304121  0.86287483     0.09500
C1131       C  0.79570495  0.62393444  0.83393845    -0.02000
C1132       C  0.77372576  0.63130251  0.81402541    -0.00300
C1133       C  0.74977892  0.64812502  0.82283212    -0.03900
C1134       C  0.74764067  0.65664368  0.85203270     0.03100
C1135       C  0.81887863  0.62853027  0.88305271     0.10000
C1136       C  0.82093920  0.60800805  0.82440506     0.35900
C1137       C  0.72300996  0.67346684  0.86168498     0.39300
C1138       C  0.82372718  0.60149431  0.89644687    -0.04300
C1139       C  0.84806131  0.59742646  0.91457031     0.02900
C1140       C  0.86754037  0.62042029  0.91946801    -0.03900
C1141       C  0.86194534  0.64774300  0.90700331    -0.00100
C1142       C  0.83803964  0.65164305  0.88854362    -0.02700
C1143       C  0.80386307  0.57782900  0.89123699     0.36600
C1144       C  0.88080167  0.67199851  0.91338297     0.40200
C1145       C  0.85336102  0.56952839  0.92778654     0.39300
C1146       C  0.83352153  0.67933478  0.87454042     0.36300
C1147       C  0.76718460  0.65785422  0.90178954     0.37000
C1148       C  0.77679048  0.62314966  0.78405888     0.40200
N1149       N  0.85758838  0.54729220  0.93842968    -0.37900
N1150       N  0.78801966  0.55893374  0.88699292    -0.39400
N1151       N  0.89578822  0.69132339  0.91864986    -0.37200
N1152       N  0.82989887  0.70135751  0.86325802    -0.39600
N1153       N  0.84111926  0.59533895  0.81684854    -0.39400
N1154       N  0.77936110  0.61677994  0.76012211    -0.37000
N1155       N  0.70344743  0.68699683  0.86938422    -0.38000
N1156       N  0.76550737  0.66498731  0.92559463    -0.39700
C1157       C  0.01024032  0.60307331  0.88441537    -0.04600
C1158       C  0.02258192  0.63087007  0.88190289     0.09500
C1159       C  0.01150829  0.65384767  0.89850356    -0.02000
C1160       C  0.98757617  0.64934744  0.91674273    -0.00300
C1161       C  0.97457325  0.62178863  0.91854646    -0.03900
C1162       C  0.98617581  0.59856598  0.90258545     0.03100
C1163       C  0.04563936  0.63674653  0.86004473     0.10000
C1164       C  0.02426609  0.68238218  0.89606257     0.35900
C1165       C  0.97298446  0.57018179  0.90449699     0.39300
C1166       C  0.03782403  0.64767553  0.83273067    -0.04300
C1167       C  0.05935869  0.65524582  0.81261150     0.02900
C1168       C  0.08889537  0.65201226  0.81968044    -0.03900
C1169       C  0.09673432  0.64039875  0.84676609    -0.00100
C1170       C  0.07512616  0.63281175  0.86691899    -0.02700
C1171       C  0.00750375  0.65144402  0.82553920     0.36600
C1172       C  0.12702410  0.63712712  0.85426003     0.40200
C1173       C  0.05112327  0.66595472  0.78439587     0.39300
C1174       C  0.08314211  0.62147140  0.89493750     0.36300
C1175       C  0.02191037  0.57933480  0.86774815     0.37000
C1176       C  0.97542050  0.67341847  0.93261563     0.40200
N1177       N  0.04460126  0.67438646  0.76183147    -0.37900
N1178       N  0.98327692  0.65445630  0.81997856    -0.39400
N1179       N  0.15117460  0.63451861  0.86033633    -0.37200
N1180       N  0.08947120  0.61240284  0.91731265    -0.39600
N1181       N  0.03445469  0.70513550  0.89399649    -0.39400
N1182       N  0.96560101  0.69255897  0.94527051    -0.37000
N1183       N  0.96236836  0.54757348  0.90598716    -0.38000
N1184       N  0.03128383  0.56038871  0.85448054    -0.39700
C1185       C  0.02069228  0.84315248  0.28744721    -0.04600
C1186       C  0.03047009  0.83029168  0.31334715     0.09500
C1187       C  0.02120825  0.84156775  0.34000037    -0.02000
C1188       C  0.00367671  0.86651520  0.34075905    -0.00300
C1189       C  0.99455070  0.87972405  0.31487096    -0.03900
C1190       C  0.00230122  0.86744631  0.28824384     0.03100
C1191       C  0.05125454  0.80546420  0.31219049     0.10000
C1192       C  0.02985911  0.82755209  0.36658612     0.35900
C1193       C  0.99137205  0.87992984  0.26170879     0.39300
C1194       C  0.08100818  0.81006828  0.31749357    -0.04300
C1195       C  0.10127274  0.78813376  0.31128873     0.02900
C1196       C  0.09181837  0.76141558  0.30004491    -0.03900
C1197       C  0.06187373  0.75587783  0.29750167    -0.00100
C1198       C  0.04163880  0.77786933  0.30351543    -0.02700
C1199       C  0.09081172  0.83765566  0.32862955     0.36600
C1200       C  0.05192519  0.72741747  0.28900076     0.40200
C1201       C  0.13193067  0.79364112  0.31502848     0.39300
C1202       C  0.01090470  0.77233286  0.30046936     0.36300
C1203       C  0.03022552  0.83183321  0.25995012     0.37000
C1204       C  0.99522743  0.87886758  0.36816048     0.40200
N1205       N  0.15638095  0.79815833  0.31795998    -0.37900
N1206       N  0.09853963  0.85956689  0.33783660    -0.39400
N1207       N  0.04398346  0.70460608  0.28255341    -0.37200
N1208       N  0.98635210  0.76800521  0.29813574    -0.39600
N1209       N  0.03672396  0.81631761  0.38779912    -0.39400
N1210       N  0.98843545  0.88883321  0.38995766    -0.37000
N1211       N  0.98236670  0.88976965  0.24059876    -0.38000
N1212       N  0.03791317  0.82279740  0.23804494    -0.39700
C1213       C  0.04049674  0.01319196  0.33429803    -0.04600
C1214       C  0.03739325  0.03257039  0.31104719     0.09500
C1215       C  0.01349937  0.02982420  0.29227674    -0.02000
C1216       C  0.99324629  0.00730113  0.29619510    -0.00300
C1217       C  0.99704575  0.98695374  0.31868626    -0.03900
C1218       C  0.02028633  0.99065619  0.33828444     0.03100
C1219       C  0.05985331  0.05526650  0.30542609     0.10000
C1220       C  0.01057507  0.04949848  0.26808076     0.35900
C1221       C  0.02358211  0.97103769  0.36247299     0.39300
C1222       C  0.08091348  0.05074681  0.28395635    -0.04300
C1223       C  0.10045145  0.07298350  0.27661550     0.02900
C1224       C  0.09916775  0.10001811  0.29083414    -0.03900
C1225       C  0.07876075  0.10407668  0.31316149    -0.00100
C1226       C  0.05928250  0.08170744  0.32048875    -0.02700
C1227       C  0.08211662  0.02323420  0.26906963     0.36600
C1228       C  0.07796778  0.13112853  0.32887708     0.40200
C1229       C  0.12088322  0.06838628  0.25335588     0.39300
C1230       C  0.03844654  0.08589562  0.34340756     0.36300
C1231       C  0.06524157  0.01571767  0.35336573     0.37000
C1232       C  0.96920904  0.00450171  0.27628079     0.40200
N1233       N  0.13716883  0.06476996  0.23480461    -0.37900
N1234       N  0.08303868  0.00128992  0.25719939    -0.39400
N1235       N  0.07728978  0.15271215  0.34140796    -0.37200
N1236       N  0.02191668  0.08910111  0.36181117    -0.39600
N1237       N  0.00856793  0.06506912  0.24865516    -0.39400
N1238       N  0.94991174  0.00249668  0.26050066    -0.37000
N1239       N  0.02620902  0.95530351  0.38169394    -0.38000
N1240       N  0.08507312  0.01766720  0.36847850    -0.39700
C1241       C  0.80611433  0.85895091  0.73447309    -0.04600
C1242       C  0.80575500  0.83826811  0.71213389     0.09500
C1243       C  0.82339305  0.84226619  0.68768715    -0.02000
C1244       C  0.84066681  0.86722379  0.68517124    -0.00300
C1245       C  0.84071812  0.88811238  0.70730278    -0.03900
C1246       C  0.82363394  0.88377764  0.73210679     0.03100
C1247       C  0.78556462  0.81307119  0.71366643     0.10000
C1248       C  0.82317587  0.82101150  0.66478270     0.35900
C1249       C  0.82401220  0.90495343  0.75510817     0.39300
C1250       C  0.75577140  0.81718091  0.70831222    -0.04300
C1251       C  0.73637722  0.79383640  0.71093019     0.02900
C1252       C  0.74666113  0.76628074  0.71899621    -0.03900
C1253       C  0.77659352  0.76188359  0.72324603    -0.00100
C1254       C  0.79602634  0.78525916  0.72062900    -0.02700
C1255       C  0.74502899  0.84566483  0.70074832     0.36600
C1256       C  0.78735857  0.73324381  0.73011485     0.40200
C1257       C  0.70565621  0.79846886  0.70651022     0.39300
C1258       C  0.82670090  0.78088522  0.72561921     0.36300
C1259       C  0.78799878  0.85490224  0.75963888     0.37000
C1260       C  0.85735589  0.87210954  0.65917652     0.40200
N1261       N  0.68115187  0.80224813  0.70305112    -0.37900
N1262       N  0.73653843  0.86846012  0.69490937    -0.39400
N1263       N  0.79596479  0.71035567  0.73540821    -0.37200
N1264       N  0.85120269  0.77745598  0.72948892    -0.39600
N1265       N  0.82309628  0.80396702  0.64658553    -0.39400
N1266       N  0.87060347  0.87619438  0.63844397    -0.37000
N1267       N  0.82432622  0.92190388  0.77339670    -0.38000
N1268       N  0.77338260  0.85175204  0.77960655    -0.39700
C1269       C  0.82212273  0.03754657  0.71430997    -0.04600
C1270       C  0.80355099  0.04200836  0.69056138     0.09500
C1271       C  0.80496411  0.02331786  0.66665948    -0.02000
C1272       C  0.82380211  0.99934827  0.66713663    -0.00300
C1273       C  0.84168972  0.99429765  0.69131356    -0.03900
C1274       C  0.84138976  0.01393294  0.71455228     0.03100
C1275       C  0.78056693  0.06466866  0.69217762     0.10000
C1276       C  0.78621844  0.02823393  0.64208148     0.35900
C1277       C  0.85980794  0.00895704  0.73939194     0.39300
C1278       C  0.78669455  0.09357173  0.68494705    -0.04300
C1279       C  0.76602500  0.11540976  0.69020293     0.02900
C1280       C  0.73888466  0.10839969  0.70279196    -0.03900
C1281       C  0.73178506  0.07870961  0.70674839    -0.00100
C1282       C  0.75282471  0.05716369  0.70216338    -0.02700
C1283       C  0.81445874  0.10076490  0.67231064     0.36600
C1284       C  0.70307802  0.06978310  0.71573917     0.40200
C1285       C  0.77264033  0.14491799  0.68187353     0.39300
C1286       C  0.74626482  0.02713926  0.70859008     0.36300
C1287       C  0.82021791  0.05640134  0.73915802     0.37000
C1288       C  0.82423082  0.97936669  0.64312801     0.40200
N1289       N  0.77793328  0.16841971  0.67511682    -0.37900
N1290       N  0.83656561  0.10642666  0.66208549    -0.39400
N1291       N  0.68014245  0.06239968  0.72252096    -0.37200
N1292       N  0.74114658  0.00320471  0.71375735    -0.39600
N1293       N  0.77120194  0.03221575  0.62251610    -0.39400
N1294       N  0.82453541  0.96329816  0.62407096    -0.37000
N1295       N  0.87453966  0.00497225  0.75917283    -0.38000
N1296       N  0.81848026  0.07136946  0.75901205    -0.39700
C1297       C  0.22883724  0.03370957  0.90819529    -0.04600
C1298       C  0.20395813  0.05102591  0.90481602     0.09500
C1299       C  0.18091430  0.04851888  0.92455150    -0.02000
C1300       C  0.18328642  0.02972294  0.94834094    -0.00300
C1301       C  0.20858461  0.01306635  0.95228379    -0.03900
C1302       C  0.23114086  0.01470032  0.93184781     0.03100
C1303       C  0.20227148  0.07256931  0.88086718     0.10000
C1304       C  0.15485718  0.06548701  0.92042483     0.35900
C1305       C  0.25712850  0.99754617  0.93569143     0.39300
C1306       C  0.18891917  0.06510442  0.85469018    -0.04300
C1307       C  0.18571405  0.08591805  0.83271160     0.02900
C1308       C  0.19693276  0.11433163  0.83631745    -0.03900
C1309       C  0.21106974  0.12140162  0.86252510    -0.00100
C1310       C  0.21339268  0.10065978  0.88474958    -0.02700
C1311       C  0.17819198  0.03592029  0.85054427     0.36600
C1312       C  0.22363229  0.14981958  0.86675236     0.40200
C1313       C  0.16939383  0.07818921  0.80710965     0.39300
C1314       C  0.22704193  0.10818486  0.91188102     0.36300
C1315       C  0.25217646  0.03580717  0.88747113     0.37000
C1316       C  0.15975443  0.02755346  0.96886898     0.40200
N1317       N  0.15627850  0.07200944  0.78677955    -0.37900
N1318       N  0.16975676  0.01261626  0.84719506    -0.39400
N1319       N  0.23367294  0.17245371  0.87031066    -0.37200
N1320       N  0.23784085  0.11401485  0.93360375    -0.39600
N1321       N  0.13402559  0.07894079  0.91703223    -0.39400
N1322       N  0.14108993  0.02580422  0.98535952    -0.37000
N1323       N  0.27782760  0.98381570  0.93877837    -0.38000
N1324       N  0.27075023  0.03753362  0.87088042    -0.39700
C1325       C  0.19522001  0.09280701  0.12311680    -0.04600
C1326       C  0.21237211  0.06841232  0.12939441     0.09500
C1327       C  0.22451814  0.06528918  0.15706156    -0.02000
C1328       C  0.21915537  0.08620481  0.17859019    -0.00300
C1329       C  0.20102866  0.11031871  0.17277145    -0.03900
C1330       C  0.18920453  0.11343328  0.14465498     0.03100
C1331       C  0.21686173  0.04577540  0.10673641     0.10000
C1332       C  0.24248882  0.04037284  0.16332386     0.35900
C1333       C  0.16971602  0.13709990  0.13786905     0.39300
C1334       C  0.24101123  0.04720514  0.08825522    -0.04300
C1335       C  0.24288709  0.02863108  0.06423359     0.02900
C1336       C  0.22065366  0.00840489  0.05858895    -0.03900
C1337       C  0.19757966  0.00555307  0.07836585    -0.00100
C1338       C  0.19567449  0.02425005  0.10229561    -0.02700
C1339       C  0.26351894  0.06835922  0.09358940     0.36600
C1340       C  0.17502788  0.98432769  0.07338022     0.40200
C1341       C  0.26751308  0.03056031  0.04501832     0.39300
C1342       C  0.17140169  0.02204315  0.12193107     0.36300
C1343       C  0.18355794  0.09652872  0.09430459     0.37000
C1344       C  0.23290328  0.08299880  0.20650325     0.40200
N1345       N  0.28711981  0.03202269  0.02962143    -0.37900
N1346       N  0.28151575  0.08518671  0.09796401    -0.39400
N1347       N  0.15710214  0.96730823  0.06945647    -0.37200
N1348       N  0.15207779  0.02037405  0.13765907    -0.39600
N1349       N  0.25683213  0.02046783  0.16823118    -0.39400
N1350       N  0.24392377  0.08034075  0.22874057    -0.37000
N1351       N  0.15414593  0.15591205  0.13236930    -0.38000
N1352       N  0.17439901  0.09947985  0.07128420    -0.39700
C1353       C  0.64555107  0.82471000  0.91479153    -0.04600
C1354       C  0.62130171  0.82019592  0.89686468     0.09500
C1355       C  0.59526963  0.83514365  0.90236963    -0.02000
C1356       C  0.59321646  0.85377564  0.92635566    -0.00300
C1357       C  0.61723541  0.85753569  0.94477693    -0.03900
C1358       C  0.64361255  0.84350251  0.93848761     0.03100
C1359       C  0.62379677  0.79989418  0.87197591     0.10000
C1360       C  0.57069595  0.83128775  0.88334486     0.35900
C1361       C  0.66891963  0.84871914  0.95629057     0.39300
C1362       C  0.61535176  0.77071745  0.87499623    -0.04300
C1363       C  0.62179682  0.75058695  0.85311900     0.02900
C1364       C  0.63644621  0.75966424  0.82801513    -0.03900
C1365       C  0.64381618  0.78910364  0.82454205    -0.00100
C1366       C  0.63748589  0.80913893  0.84645648    -0.02700
C1367       C  0.60090554  0.76128329  0.90106404     0.36600
C1368       C  0.65806997  0.79877636  0.79842917     0.40200
C1369       C  0.61503806  0.72024346  0.85724778     0.39300
C1370       C  0.64573775  0.83921116  0.84318141     0.36300
C1371       C  0.67250737  0.80979869  0.90887836     0.37000
C1372       C  0.56637243  0.86877204  0.93234891     0.40200
N1373       N  0.60988724  0.69599378  0.86060624    -0.37900
N1374       N  0.58929893  0.75378680  0.92183516    -0.39400
N1375       N  0.66945132  0.80646966  0.77760466    -0.37200
N1376       N  0.65233943  0.86321191  0.84071478    -0.39600
N1377       N  0.55110726  0.82823102  0.86810351    -0.39400
N1378       N  0.54502026  0.88087881  0.93715306    -0.37000
N1379       N  0.68907510  0.85304114  0.97045811    -0.38000
N1380       N  0.69396745  0.79789470  0.90405106    -0.39700
C1381       C  0.59887221  0.82657890  0.08669170    -0.04600
C1382       C  0.62645354  0.82162410  0.09875136     0.09500
C1383       C  0.65069857  0.83677129  0.08813006    -0.02000
C1384       C  0.64762665  0.85564944  0.06447788    -0.00300
C1385       C  0.62035599  0.85913170  0.05120673    -0.03900
C1386       C  0.59582788  0.84524708  0.06288711     0.03100
C1387       C  0.63008157  0.79958249  0.12200658     0.10000
C1388       C  0.67884679  0.83249323  0.10127882     0.35900
C1389       C  0.56747692  0.85028822  0.05042661     0.39300
C1390       C  0.63473753  0.77048005  0.11474115    -0.04300
C1391       C  0.63812678  0.74939562  0.13647474     0.02900
C1392       C  0.63730538  0.75735306  0.16617754    -0.03900
C1393       C  0.63147492  0.78686282  0.17306919    -0.00100
C1394       C  0.62833001  0.80771882  0.15105793    -0.02700
C1395       C  0.63649801  0.76233947  0.08459575     0.36600
C1396       C  0.62812701  0.79634144  0.20264406     0.40200
C1397       C  0.64246854  0.71966159  0.12753326     0.39300
C1398       C  0.62361776  0.83788600  0.15820050     0.36300
C1399       C  0.57373991  0.81220302  0.09870531     0.37000
C1400       C  0.67258925  0.87102794  0.05336529     0.40200
N1401       N  0.64583819  0.69602756  0.12012718    -0.37900
N1402       N  0.63798127  0.75589785  0.06058083    -0.39400
N1403       N  0.62535457  0.80416370  0.22613461    -0.37200
N1404       N  0.62001044  0.86198756  0.16373727    -0.39600
N1405       N  0.70128764  0.82909906  0.11183382    -0.39400
N1406       N  0.69237909  0.88352025  0.04452833    -0.37000
N1407       N  0.54484110  0.85443494  0.04057128    -0.38000
N1408       N  0.55375039  0.80076749  0.10846358    -0.39700
C1409       C  0.82414186  0.26699674  0.89311384    -0.04600
C1410       C  0.81598532  0.23934685  0.88312944     0.09500
C1411       C  0.83147441  0.21473837  0.89250296    -0.02000
C1412       C  0.85537911  0.21784206  0.91108774    -0.00300
C1413       C  0.86459722  0.24560018  0.91961877    -0.03900
C1414       C  0.84869804  0.27016289  0.91096331     0.03100
C1415       C  0.79175919  0.23593146  0.86192521     0.10000
C1416       C  0.82319845  0.18623291  0.88245679     0.35900
C1417       C  0.85799148  0.29868055  0.91996141     0.39300
C1418       C  0.79606737  0.24308533  0.83270430    -0.04300
C1419       C  0.77444066  0.23700613  0.81208273     0.02900
C1420       C  0.74836851  0.22317694  0.82044854    -0.03900
C1421       C  0.74394015  0.21666335  0.85003045    -0.00100
C1422       C  0.76530208  0.22358345  0.87062654    -0.02700
C1423       C  0.82307122  0.25636022  0.82379846     0.36600
C1424       C  0.71820908  0.20129423  0.85938590     0.40200
C1425       C  0.77920114  0.24523139  0.78230069     0.39300
C1426       C  0.76027670  0.21764486  0.90090214     0.36300
C1427       C  0.80731808  0.29211955  0.88483847     0.37000
C1428       C  0.87061772  0.19245414  0.92143338     0.40200
N1429       N  0.78317658  0.25174636  0.75856584    -0.37900
N1430       N  0.84456682  0.26709052  0.81680324    -0.39400
N1431       N  0.69778042  0.18893098  0.86688340    -0.37200
N1432       N  0.75628083  0.21298225  0.92505624    -0.39600
N1433       N  0.81652744  0.16352099  0.87443633    -0.39400
N1434       N  0.88262855  0.17221147  0.92990848    -0.37000
N1435       N  0.86547173  0.32143931  0.92710034    -0.38000
N1436       N  0.79379465  0.31210751  0.87822932    -0.39700
C1437       C  0.04396092  0.25010894  0.83598792    -0.04600
C1438       C  0.04806685  0.24680754  0.86583056     0.09500
C1439       C  0.07577860  0.24023491  0.87654799    -0.02000
C1440       C  0.09877434  0.23420627  0.85741443    -0.00300
C1441       C  0.09413083  0.23464799  0.82701193    -0.03900
C1442       C  0.06687989  0.24467655  0.81668162     0.03100
C1443       C  0.02250009  0.24745053  0.88562456     0.10000
C1444       C  0.08029173  0.23880190  0.90745191     0.35900
C1445       C  0.06202958  0.24979892  0.78622155     0.39300
C1446       C  0.00637673  0.22191698  0.89003151    -0.04300
C1447       C  0.98108422  0.22242700  0.90694905     0.02900
C1448       C  0.97201734  0.24839333  0.92007846    -0.03900
C1449       C  0.98863515  0.27376333  0.91639398    -0.00100
C1450       C  0.01369279  0.27335156  0.89899408    -0.02700
C1451       C  0.01575860  0.19514993  0.87676653     0.36600
C1452       C  0.97942472  0.30044758  0.92988034     0.40200
C1453       C  0.96426995  0.19622240  0.91067647     0.39300
C1454       C  0.03008040  0.29964330  0.89431240     0.36300
C1455       C  0.01565127  0.25824582  0.82511358     0.37000
C1456       C  0.12680087  0.22701900  0.86959727     0.40200
N1457       N  0.95089634  0.17526701  0.91349805    -0.37900
N1458       N  0.02343448  0.17389779  0.86614069    -0.39400
N1459       N  0.97196903  0.32165833  0.94074014    -0.37200
N1460       N  0.04309747  0.32067220  0.89052097    -0.39600
N1461       N  0.08384146  0.23776751  0.93210146    -0.39400
N1462       N  0.14909437  0.22146722  0.87956304    -0.37000
N1463       N  0.05802900  0.25397214  0.76196420    -0.38000
N1464       N  0.99303541  0.26465298  0.81650242    -0.39700
C1465       C  0.79501288  0.62897032  0.15812880    -0.04600
C1466       C  0.79612842  0.64537199  0.13251682     0.09500
C1467       C  0.77406885  0.66553257  0.12649358    -0.02000
C1468       C  0.75107992  0.66946870  0.14603855    -0.00300
C1469       C  0.75000112  0.65329779  0.17196100    -0.03900
C1470       C  0.77224148  0.63310714  0.17792680     0.03100
C1471       C  0.82127384  0.64233737  0.11244515     0.10000
C1472       C  0.77553481  0.68283666  0.10045006     0.35900
C1473       C  0.77198178  0.61666632  0.20452337     0.39300
C1474       C  0.82286461  0.61868053  0.09339902    -0.04300
C1475       C  0.84706996  0.61536328  0.07521707     0.02900
C1476       C  0.86990864  0.63574561  0.07598377    -0.03900
C1477       C  0.86770103  0.66002135  0.09432510    -0.00100
C1478       C  0.84361636  0.66313968  0.11265049    -0.02700
C1479       C  0.79975595  0.59746970  0.09293680     0.36600
C1480       C  0.89013945  0.68196576  0.09419749     0.40200
C1481       C  0.84880728  0.59045157  0.05637671     0.39300
C1482       C  0.84201582  0.68751912  0.13217870     0.36300
C1483       C  0.81766994  0.60815473  0.16430194     0.37000
C1484       C  0.72964967  0.69163306  0.14021386     0.40200
N1485       N  0.85013961  0.57068506  0.04120716    -0.37900
N1486       N  0.78136342  0.58049618  0.09269524    -0.39400
N1487       N  0.90806582  0.69943416  0.09409402    -0.37200
N1488       N  0.84065312  0.70695056  0.14776467    -0.39600
N1489       N  0.77690474  0.69677188  0.07978455    -0.39400
N1490       N  0.71276590  0.70950220  0.13556111    -0.37000
N1491       N  0.77214590  0.60366624  0.22582083    -0.38000
N1492       N  0.83570294  0.59147910  0.16910949    -0.39700
C1493       C  0.02170378  0.64354007  0.09095952    -0.04600
C1494       C  0.02235667  0.62762950  0.11690428     0.09500
C1495       C  0.00128393  0.60616861  0.12189291    -0.02000
C1496       C  0.97860714  0.60192703  0.10193979    -0.00300
C1497       C  0.97638876  0.61964172  0.07712602    -0.03900
C1498       C  0.99877996  0.63968037  0.07115494     0.03100
C1499       C  0.04367895  0.63533255  0.14005570     0.10000
C1500       C  0.00224523  0.58936150  0.14825498     0.35900
C1501       C  0.99749768  0.65756414  0.04550439     0.39300
C1502       C  0.03760420  0.65844914  0.15884564    -0.04300
C1503       C  0.05775338  0.66657685  0.18023668     0.02900
C1504       C  0.08429034  0.65146424  0.18323040    -0.03900
C1505       C  0.09004135  0.62789072  0.16456151    -0.00100
C1506       C  0.06979764  0.61992534  0.14312932    -0.02700
C1507       C  0.01035993  0.67382200  0.15614144     0.36600
C1508       C  0.11728849  0.61242940  0.16646278     0.40200
C1509       C  0.05069806  0.69025327  0.19941518     0.39300
C1510       C  0.07593462  0.59602773  0.12393769     0.36300
C1511       C  0.04407200  0.66479569  0.08531525     0.37000
C1512       C  0.95711828  0.57969722  0.10726512     0.40200
N1513       N  0.04493817  0.70926178  0.21450885    -0.37900
N1514       N  0.98858212  0.68595571  0.15389016    -0.39400
N1515       N  0.13901892  0.60009345  0.16798132    -0.37200
N1516       N  0.08081239  0.57692704  0.10865266    -0.39600
N1517       N  0.00301166  0.57603091  0.16934481    -0.39400
N1518       N  0.93989281  0.56203966  0.11148249    -0.37000
N1519       N  0.99658016  0.67176172  0.02498272    -0.38000
N1520       N  0.06196012  0.68174076  0.08093449    -0.39700
C1521       C  0.03773752  0.85684360  0.66713222    -0.04600
C1522       C  0.03441022  0.83528721  0.68837551     0.09500
C1523       C  0.01112836  0.83706059  0.70790093    -0.02000
C1524       C  0.99311000  0.86168971  0.70817652    -0.00300
C1525       C  0.99766212  0.88437918  0.68818053    -0.03900
C1526       C  0.01925417  0.88116624  0.66683813     0.03100
C1527       C  0.05701431  0.81237173  0.69248617     0.10000
C1528       C  0.00622116  0.81371266  0.72820629     0.35900
C1529       C  0.02250473  0.90299251  0.64462838     0.39300
C1530       C  0.08179726  0.81858020  0.70917738    -0.04300
C1531       C  0.10124045  0.79633621  0.71679661     0.02900
C1532       C  0.09634425  0.76771028  0.70735888    -0.03900
C1533       C  0.07234335  0.76180020  0.68937272    -0.00100
C1534       C  0.05272733  0.78408771  0.68199500    -0.02700
C1535       C  0.08705672  0.84793376  0.71880925     0.36600
C1536       C  0.06700663  0.73251425  0.67966146     0.40200
C1537       C  0.12641121  0.80298333  0.73430122     0.39300
C1538       C  0.02786358  0.77793531  0.66396857     0.36300
C1539       C  0.06049653  0.85413135  0.64588163     0.37000
C1540       C  0.97100964  0.86428218  0.73016205     0.40200
N1541       N  0.14645736  0.80827455  0.74829700    -0.37900
N1542       N  0.09125743  0.87141484  0.72626688    -0.39400
N1543       N  0.06274872  0.70910533  0.67201165    -0.37200
N1544       N  0.00803176  0.77309755  0.64952086    -0.39600
N1545       N  0.00224291  0.79486156  0.74412224    -0.39400
N1546       N  0.95340404  0.86628945  0.74773381    -0.37000
N1547       N  0.02497281  0.92044922  0.62692798    -0.38000
N1548       N  0.07861195  0.85192081  0.62886092    -0.39700
C1549       C  0.01502984  0.03873099  0.68970874    -0.04600
C1550       C  0.03347704  0.04111727  0.71378847     0.09500
C1551       C  0.03431262  0.01875223  0.73447095    -0.02000
C1552       C  0.01726094  0.99377377  0.73076557    -0.00300
C1553       C  0.99937979  0.99095451  0.70624686    -0.03900
C1554       C  0.99796964  0.01373456  0.68593829     0.03100
C1555       C  0.05337181  0.06641997  0.71670418     0.10000
C1556       C  0.05315215  0.02130796  0.75934085     0.35900
C1557       C  0.97958534  0.01111935  0.66073048     0.39300
C1558       C  0.04520666  0.09063679  0.73312704    -0.04300
C1559       C  0.06522554  0.11311710  0.73829936     0.02900
C1560       C  0.09342739  0.11184823  0.72630572    -0.03900
C1561       C  0.10095561  0.08797462  0.70872550    -0.00100
C1562       C  0.08103395  0.06538459  0.70409472    -0.02700
C1563       C  0.01617668  0.09221015  0.74484314     0.36600
C1564       C  0.12916500  0.08649202  0.69514319     0.40200
C1565       C  0.05714265  0.13659572  0.75733129     0.39300
C1566       C  0.08900481  0.04080740  0.68643557     0.36300
C1567       C  0.01411010  0.06181303  0.66856773     0.37000
C1568       C  0.01787653  0.97105673  0.75232568     0.40200
N1569       N  0.05066872  0.15520835  0.77263761    -0.37900
N1570       N  0.99292909  0.09348076  0.75396818    -0.39400
N1571       N  0.15169094  0.08511770  0.68439755    -0.37200
N1572       N  0.09522735  0.02120664  0.67230649    -0.39600
N1573       N  0.06822007  0.02338504  0.77915018    -0.39400
N1574       N  0.01828255  0.95287184  0.76945829    -0.37000
N1575       N  0.96484713  0.00903514  0.64067497    -0.38000
N1576       N  0.01345818  0.08025138  0.65171469    -0.39700
C1577       C  0.79666362  0.84903674  0.32746027    -0.04600
C1578       C  0.80278992  0.83039931  0.30427272     0.09500
C1579       C  0.82736914  0.83545771  0.28702750    -0.02000
C1580       C  0.84459470  0.86020605  0.29164524    -0.00300
C1581       C  0.83799484  0.87945977  0.31437941    -0.03900
C1582       C  0.81452410  0.87316533  0.33285094     0.03100
C1583       C  0.78195340  0.80692066  0.29644331     0.10000
C1584       C  0.83441155  0.81551043  0.26402108     0.35900
C1585       C  0.80864585  0.89165555  0.35732332     0.39300
C1586       C  0.76099772  0.81203729  0.27493699    -0.04300
C1587       C  0.74119572  0.79018471  0.26726397     0.02900
C1588       C  0.74208180  0.76292500  0.28123334    -0.03900
C1589       C  0.76307086  0.75794117  0.30293172    -0.00100
C1590       C  0.78289543  0.77990228  0.31049047    -0.02700
C1591       C  0.75982749  0.83998818  0.26073804     0.36600
C1592       C  0.76378578  0.73053899  0.31814707     0.40200
C1593       C  0.72055061  0.79565142  0.24428477     0.39300
C1594       C  0.80419256  0.77483953  0.33288328     0.36300
C1595       C  0.77130534  0.84390538  0.34508850     0.37000
C1596       C  0.86802060  0.86668472  0.27188993     0.40200
N1597       N  0.70410144  0.80007736  0.22598448    -0.37900
N1598       N  0.75896224  0.86230628  0.24948688    -0.39400
N1599       N  0.76429499  0.70865333  0.33024004    -0.37200
N1600       N  0.82112869  0.77084013  0.35082520    -0.39600
N1601       N  0.84005906  0.79949213  0.24577122    -0.39400
N1602       N  0.88663107  0.87192459  0.25607419    -0.37000
N1603       N  0.80403970  0.90639386  0.37688500    -0.38000
N1604       N  0.75096263  0.83978602  0.35899554    -0.39700
C1605       C  0.80499419  0.01471935  0.27493772    -0.04600
C1606       C  0.79987601  0.03470942  0.29735701     0.09500
C1607       C  0.81371056  0.03073916  0.32425066    -0.02000
C1608       C  0.83181746  0.00656563  0.32891389    -0.00300
C1609       C  0.83673814  0.98656539  0.30651961    -0.03900
C1610       C  0.82360141  0.99098817  0.27940788     0.03100
C1611       C  0.77973418  0.05976372  0.29250775     0.10000
C1612       C  0.80909042  0.05143941  0.34719009     0.35900
C1613       C  0.82923009  0.97094108  0.25608711     0.39300
C1614       C  0.75219694  0.06031660  0.30568438    -0.04300
C1615       C  0.73287430  0.08333508  0.30015468     0.02900
C1616       C  0.74027748  0.10528454  0.28019995    -0.03900
C1617       C  0.76758128  0.10421574  0.26648196    -0.00100
C1618       C  0.78760639  0.08228351  0.27352467    -0.02700
C1619       C  0.74348893  0.03684951  0.32452448     0.36600
C1620       C  0.77422499  0.12401355  0.24319890     0.40200
C1621       C  0.70542862  0.08447806  0.31524066     0.39300
C1622       C  0.81632455  0.08265576  0.26094135     0.36300
C1623       C  0.79069077  0.01827504  0.24733363     0.37000
C1624       C  0.84457688  0.00170313  0.35705056     0.40200
N1625       N  0.68355020  0.08547741  0.32728430    -0.37900
N1626       N  0.73654863  0.01812958  0.33955927    -0.39400
N1627       N  0.77945213  0.13914379  0.22405140    -0.37200
N1628       N  0.83926780  0.08289990  0.25100448    -0.39600
N1629       N  0.80524581  0.06792851  0.36548999    -0.39400
N1630       N  0.85466501  0.99775297  0.37953440    -0.37000
N1631       N  0.83383649  0.95486893  0.23759628    -0.38000
N1632       N  0.77938909  0.02116817  0.22526753    -0.39700
C1633       C  0.61480198  0.03440785  0.89812889    -0.04600
C1634       C  0.63994497  0.05143513  0.89515542     0.09500
C1635       C  0.66220314  0.04945626  0.91590305    -0.02000
C1636       C  0.65871677  0.03157987  0.94025759    -0.00300
C1637       C  0.63301960  0.01544769  0.94389071    -0.03900
C1638       C  0.61134028  0.01641567  0.92241007     0.03100
C1639       C  0.64238315  0.07253400  0.87086878     0.10000
C1640       C  0.68852339  0.06615822  0.91232899     0.35900
C1641       C  0.58501357  0.99967666  0.92576206     0.39300
C1642       C  0.62776490  0.09922670  0.87238926    -0.04300
C1643       C  0.63024082  0.11946223  0.84980961     0.02900
C1644       C  0.64770819  0.11329831  0.82554949    -0.03900
C1645       C  0.66301965  0.08676713  0.82456741    -0.00100
C1646       C  0.65985295  0.06626884  0.84685777    -0.02700
C1647       C  0.61045866  0.10603228  0.89752283     0.36600
C1648       C  0.68390115  0.08136425  0.80194167     0.40200
C1649       C  0.61486834  0.14669742  0.85186949     0.39300
C1650       C  0.67491769  0.03880798  0.84537647     0.36300
C1651       C  0.59232674  0.03582909  0.87633756     0.37000
C1652       C  0.68154130  0.02980548  0.96165963     0.40200
N1653       N  0.60281853  0.16851360  0.85380999    -0.37900
N1654       N  0.59667811  0.11147344  0.91756986    -0.39400
N1655       N  0.70103815  0.07709916  0.78433136    -0.37200
N1656       N  0.68692240  0.01689678  0.84428489    -0.39600
N1657       N  0.70957957  0.07935214  0.90930691    -0.39400
N1658       N  0.69969654  0.02836774  0.97878721    -0.37000
N1659       N  0.56404962  0.98625443  0.92840144    -0.38000
N1660       N  0.57445035  0.03707917  0.85890762    -0.39700
C1661       C  0.60729785  0.07366492  0.14675249    -0.04600
C1662       C  0.62366544  0.07554038  0.12122825     0.09500
C1663       C  0.64442254  0.09761938  0.11805096    -0.02000
C1664       C  0.64955541  0.11720705  0.14064770    -0.00300
C1665       C  0.63339115  0.11531899  0.16651056    -0.03900
C1666       C  0.61195200  0.09361390  0.16928305     0.03100
C1667       C  0.61980721  0.05383735  0.09774121     0.10000
C1668       C  0.66080479  0.09992097  0.09150660     0.35900
C1669       C  0.59423787  0.09206958  0.19498403     0.39300
C1670       C  0.59775364  0.05745977  0.07704012    -0.04300
C1671       C  0.59602841  0.03863523  0.05326397     0.02900
C1672       C  0.61669361  0.01641515  0.04979519    -0.03900
C1673       C  0.63781926  0.01185887  0.07140881    -0.00100
C1674       C  0.63941236  0.03061674  0.09524294    -0.02700
C1675       C  0.57749898  0.08121525  0.07973308     0.36600
C1676       C  0.65859044  0.98851604  0.06869716     0.40200
C1677       C  0.57291864  0.04201163  0.03236944     0.39300
C1678       C  0.66189687  0.02674320  0.11674444     0.36300
C1679       C  0.58588702  0.05095285  0.14982104     0.37000
C1680       C  0.67258040  0.13837625  0.13763924     0.40200
N1681       N  0.55443869  0.04454371  0.01571793    -0.37900
N1682       N  0.56141361  0.10023967  0.08190687    -0.39400
N1683       N  0.67502162  0.96976472  0.06666883    -0.37200
N1684       N  0.67988753  0.02382428  0.13386028    -0.39600
N1685       N  0.67384389  0.10176550  0.07033532    -0.39400
N1686       N  0.69095854  0.15521802  0.13532486    -0.37000
N1687       N  0.57998027  0.09076916  0.21540610    -0.38000
N1688       N  0.56884571  0.03276817  0.15211557    -0.39700
C1689       C  0.21923478  0.80621783  0.84276335    -0.04600
C1690       C  0.21423478  0.79729052  0.87142020     0.09500
C1691       C  0.20444323  0.76892497  0.87691532    -0.02000
C1692       C  0.19841387  0.75005384  0.85388110    -0.00300
C1693       C  0.20187425  0.75947964  0.82517568    -0.03900
C1694       C  0.21287034  0.78741236  0.81964097     0.03100
C1695       C  0.21701192  0.81828823  0.89580951     0.10000
C1696       C  0.20007529  0.75936950  0.90634408     0.35900
C1697       C  0.21663756  0.79712863  0.79019000     0.39300
C1698       C  0.19338529  0.83624205  0.90286445    -0.04300
C1699       C  0.19469535  0.85432047  0.92727040     0.02900
C1700       C  0.21954927  0.85433365  0.94503234    -0.03900
C1701       C  0.24338267  0.83670493  0.93768334    -0.00100
C1702       C  0.24215737  0.81882768  0.91307547    -0.02700
C1703       C  0.16715881  0.83498694  0.88570180     0.36600
C1704       C  0.26892077  0.83654314  0.95585244     0.40200
C1705       C  0.16983410  0.87178450  0.93495919     0.39300
C1706       C  0.26635814  0.80025394  0.90598546     0.36300
C1707       C  0.23067312  0.83485137  0.83718464     0.37000
C1708       C  0.18872204  0.72079824  0.85968330     0.40200
N1709       N  0.14997864  0.88567317  0.94112074    -0.37900
N1710       N  0.14624994  0.83371534  0.87202251    -0.39400
N1711       N  0.28921652  0.83639997  0.97047378    -0.37200
N1712       N  0.28561383  0.78533281  0.90035438    -0.39600
N1713       N  0.19666219  0.75178485  0.92984746    -0.39400
N1714       N  0.18113165  0.69740373  0.86423119    -0.37000
N1715       N  0.21955930  0.80492427  0.76668432    -0.38000
N1716       N  0.23996643  0.85766593  0.83282318    -0.39700
C1717       C  0.18132532  0.81845475  0.08173918    -0.04600
C1718       C  0.20368945  0.81839251  0.10245090     0.09500
C1719       C  0.22858364  0.83545620  0.09811858    -0.02000
C1720       C  0.23136799  0.85211603  0.07283001    -0.00300
C1721       C  0.20930312  0.85160045  0.05171937    -0.03900
C1722       C  0.18419329  0.83484876  0.05633182     0.03100
C1723       C  0.20134855  0.79913127  0.12814428     0.10000
C1724       C  0.25140747  0.83557905  0.11956997     0.35900
C1725       C  0.16122111  0.83465178  0.03500933     0.39300
C1726       C  0.21015106  0.77004388  0.12607666    -0.04300
C1727       C  0.20490213  0.75076325  0.14899137     0.02900
C1728       C  0.19146727  0.76070681  0.17444663    -0.03900
C1729       C  0.18371816  0.79016215  0.17689837    -0.00100
C1730       C  0.18858168  0.80929963  0.15373392    -0.02700
C1731       C  0.22425333  0.75994890  0.10008420     0.36600
C1732       C  0.17103203  0.80085622  0.20336762     0.40200
C1733       C  0.21180228  0.72036470  0.14563177     0.39300
C1734       C  0.18023282  0.83941163  0.15602432     0.36300
C1735       C  0.15535518  0.80155430  0.08667482     0.37000
C1736       C  0.25726794  0.86921070  0.06815241     0.40200
N1737       N  0.21710814  0.69609197  0.14283063    -0.37900
N1738       N  0.23562458  0.75206756  0.07935758    -0.39400
N1739       N  0.16095610  0.80934540  0.22451942    -0.37200
N1740       N  0.17364695  0.86346539  0.15781610    -0.39600
N1741       N  0.26961414  0.83570735  0.13670030    -0.39400
N1742       N  0.27786166  0.88291878  0.06433900    -0.37000
N1743       N  0.14298360  0.83445640  0.01791077    -0.38000
N1744       N  0.13463903  0.78812067  0.09076924    -0.39700
loop_ 
_geom_bond_atom_site_label_1 
_geom_bond_atom_site_label_2 
_geom_bond_distance 
_geom_bond_site_symmetry_2 
_ccdc_geom_bond_type 
C1            C2   1.400       .  A
C1            C6   1.396   1_554  A
C1         C1721   1.484       .  S
C2            C3   1.412       .  A
C2            H7   1.080       .  S
C3            C4   1.421   1_554  A
C3           C68   1.511       .  S
C4            C5   1.409       .  A
C4            H8   1.070       .  S
C5            C6   1.397       .  A
C5         C1700   1.491       .  S
C6            H9   1.085       .  S
C10          C11   1.397   1_564  A
C10          C15   1.402       .  A
C10        C1672   1.489   1_565  S
C11          C12   1.397   1_545  A
C11          H16   1.084       .  S
C12          C13   1.403       .  A
C12        C1637   1.487   1_565  S
C13          C14   1.415       .  A
C13          H17   1.080       .  S
C14          C15   1.416   1_556  A
C14          C57   1.508       .  S
C15          H18   1.079       .  S
C19          C20   1.406       .  A
C19          C24   1.397       .  A
C19        C1609   1.489       .  S
C20          C21   1.419       .  A
C20          H25   1.079       .  S
C21          C22   1.419       .  A
C21          C86   1.517       .  S
C22          C23   1.403       .  A
C22          H26   1.077       .  S
C23          C24   1.396       .  A
C23        C1581   1.493       .  S
C24          H27   1.084       .  S
C28          C29   1.400       .  A
C28          C33   1.400       .  A
C28        C1553   1.488       .  S
C29          C30   1.409       .  A
C29          H34   1.081       .  S
C30          C31   1.416       .  A
C30          C75   1.501       .  S
C31          C32   1.406       .  A
C31          H35   1.081       .  S
C32          C33   1.402       .  A
C32        C1525   1.497       .  S
C33          H36   1.084   1_655  S
C37          C38   1.398       .  A
C37          C42   1.408       .  A
C37        C1497   1.499       .  S
C38          C39   1.396       .  A
C38          H43   1.084       .  S
C39          C40   1.403       .  A
C39        C1476   1.493       .  S
C40          C41   1.416       .  A
C40          H44   1.079       .  S
C41          C42   1.421       .  A
C41          C93   1.515   1_554  S
C42          H45   1.079       .  S
C46          C47   1.394       .  A
C46          C51   1.402       .  A
C46        C1413   1.485       .  S
C47          C48   1.395       .  A
C47          H52   1.084       .  S
C48          C49   1.404       .  A
C48        C1448   1.490       .  S
C49          C50   1.423       .  A
C49          H53   1.076       .  S
C50          C51   1.420       .  A
C50         C104   1.524   1_556  S
C51          H54   1.076       .  S
C55          C56   1.403       .  A
C55          C60   1.396       .  A
C55        C1357   1.486       .  S
C56          C57   1.418       .  A
C56          H61   1.080       .  S
C57          C58   1.416   1_556  A
C58          C59   1.400       .  A
C58          H62   1.079       .  S
C59          C60   1.394   1_554  A
C59        C1385   1.482       .  S
C60          H63   1.084       .  S
C64          C65   1.397   1_565  A
C64          C69   1.405       .  A
C64        C1336   1.494   1_565  S
C65          C66   1.396   1_544  A
C65          H70   1.085       .  S
C66          C67   1.403       .  A
C66        C1301   1.485   1_565  S
C67          C68   1.415   1_556  A
C67          H71   1.070       .  S
C68          C69   1.421       .  A
C69          H72   1.080       .  S
C73          C74   1.404       .  A
C73          C78   1.397       .  A
C73        C1273   1.486       .  S
C74          C75   1.416       .  A
C74          H79   1.081       .  S
C75          C76   1.411       .  A
C76          C77   1.401       .  A
C76          H80   1.081       .  S
C77          C78   1.396       .  A
C77        C1245   1.483       .  S
C78          H81   1.084       .  S
C82          C83   1.399       .  A
C82          C87   1.411       .  A
C82        C1217   1.497       .  S
C83          C84   1.392       .  A
C83          H88   1.084   1_655  S
C84          C85   1.398       .  A
C84        C1189   1.484       .  S
C85          C86   1.418       .  A
C85          H89   1.077       .  S
C86          C87   1.422       .  A
C87          H90   1.079       .  S
C91          C92   1.405       .  A
C91          C96   1.397       .  A
C91        C1140   1.492       .  S
C92          C93   1.421       .  A
C92          H97   1.079       .  S
C93          C94   1.416       .  A
C94          C95   1.403       .  A
C94          H98   1.079       .  S
C95          C96   1.396       .  A
C95        C1161   1.487       .  S
C96          H99   1.085       .  S
C100        C101   1.397       .  A
C100        C105   1.405       .  A
C100       C1112   1.493       .  S
C101        C102   1.396       .  A
C101        H106   1.084       .  S
C102        C103   1.404       .  A
C102       C1077   1.491       .  S
C103        C104   1.422       .  A
C103        H107   1.076       .  S
C104        C105   1.420       .  A
C105        H108   1.076       .  S
C109        C110   1.403       .  A
C109        C114   1.394       .  A
C109       C1049   1.483       .  S
C110        C111   1.418       .  A
C110        H115   1.079       .  S
C111        C112   1.416       .  A
C111        C234   1.513       .  S
C112        C113   1.403       .  A
C112        H116   1.078       .  S
C113        C114   1.394       .  A
C113       C1021   1.485       .  S
C114        H117   1.085       .  S
C118        C119   1.399       .  A
C118        C123   1.396       .  A
C118        C993   1.484       .  S
C119        C120   1.413       .  A
C119        H124   1.079       .  S
C120        C121   1.417       .  A
C120        C327   1.507       .  S
C121        C122   1.407       .  A
C121        H125   1.080       .  S
C122        C123   1.400       .  A
C122        C965   1.495       .  S
C123        H126   1.084       .  S
C127        C128   1.403       .  A
C127        C132   1.398       .  A
C127        C944   1.492       .  S
C128        C129   1.414       .  A
C128        H133   1.080       .  S
C129        C130   1.417       .  A
C129        C202   1.506       .  S
C130        C131   1.405       .  A
C130        H134   1.081       .  S
C131        C132   1.397       .  A
C131        C909   1.487       .  S
C132        H135   1.084       .  S
O136        C152   1.273       .  A
O136       Zn142   2.008       .  S
C137        C881   1.486       .  S
C137        O153   1.274       .  A
C137        O150   1.275       .  A
O138        C151   1.277       .  A
O138       Cd145   2.087       .  S
O139        C157   1.274       .  A
O139       Cd148   2.063       .  S
O140        C154   1.277       .  A
O140       Cd144   2.080       .  S
O141        C152   1.275       .  A
O141       Cd144   2.076       .  S
Zn142       O153   2.023       .  S
Zn142       O155   2.001       .  S
Zn142       O147   1.934       .  S
O143        C154   1.275       .  A
O143       Cd148   2.065       .  S
Cd144       O146   2.075       .  S
Cd144       O147   2.006       .  S
Cd145       O149   2.081       .  S
Cd145       O158   2.081       .  S
Cd145       O147   2.008       .  S
O146        C156   1.274       .  A
O147       Cd148   1.998       .  S
Cd148       O150   2.087       .  S
O149        C156   1.276       .  A
C151        C937   1.484       .  S
C151        O155   1.272       .  A
C152       C1028   1.480       .  S
C154       C1308   1.498       .  S
C156       C1441   1.513       .  S
C157       C1560   1.494       .  S
C157        O158   1.276       .  A
C159        C160   1.399       .  A
C159        C164   1.396       .  A
C159        C860   1.485       .  S
C160        C161   1.412       .  A
C160        H165   1.080       .  S
C161        C162   1.417       .  A
C161        C254   1.505       .  S
C162        C163   1.409       .  A
C162        H166   1.081       .  S
C163        C164   1.399       .  A
C163        C825   1.497       .  S
C164        H167   1.084       .  S
C168        C169   1.393       .  A
C168        C173   1.410       .  A
C168        C888   1.491       .  S
C169        C170   1.392       .  A
C169        H174   1.085       .  S
C170        C171   1.400       .  A
C170        C797   1.480       .  S
C171        C172   1.415       .  A
C171        H175   1.078       .  S
C172        C173   1.427       .  A
C172        C284   1.519       .  S
C173        H176   1.078       .  S
O177        C193   1.273       .  A
O177       Zn183   2.005       .  S
C178        C853   1.477       .  S
C178        O194   1.273       .  A
C178        O191   1.275       .  A
O179        C192   1.274       .  A
O179       Cd186   2.075       .  S
O180        C198   1.276       .  A
O180       Cd189   2.080       .  S
O181        C195   1.274       .  A
O181       Cd185   2.067       .  S
O182        C193   1.276       .  A
O182       Cd185   2.084       .  S
Zn183       O194   2.004       .  S
Zn183       O196   2.005       .  S
Zn183       O188   1.927       .  S
O184        C195   1.276       .  A
O184       Cd189   2.077       .  S
Cd185       O187   2.063       .  S
Cd185       O188   1.996       .  S
Cd186       O190   2.077       .  S
Cd186       O199   2.065       .  S
Cd186       O188   1.998       .  S
O187        C197   1.275       .  A
O188       Cd189   2.000       .  S
Cd189       O191   2.077       .  S
O190        C197   1.277       .  A
C192        C804   1.479       .  S
C192        O196   1.272       .  A
C193        C769   1.488       .  S
C195       C1420   1.497       .  S
C197       C1644   1.491       .  S
C198       C1280   1.503       .  S
C198        O199   1.274       .  A
C200        C201   1.404       .  A
C200        C205   1.397       .  A
C200        C713   1.489       .  S
C201        C202   1.414       .  A
C201        H206   1.081       .  S
C202        C203   1.416       .  A
C203        C204   1.404       .  A
C203        H207   1.080       .  S
C204        C205   1.399       .  A
C204        C741   1.493       .  S
C205        H208   1.084       .  S
O209        C225   1.275       .  A
O209       Zn215   2.027       .  S
C210       C1532   1.489       .  S
C210        O226   1.276       .  A
C210        O223   1.277       .  A
O211        C224   1.274       .  A
O211       Cd218   2.076       .  S
O212        C230   1.278       .  A
O212       Cd221   2.086       .  S
O213        C227   1.274       .  A
O213       Cd217   2.064       .  S
O214        C225   1.274       .  A
O214       Cd217   2.077       .  S
Zn215       O226   2.026       .  S
Zn215       O228   2.034       .  S
Zn215       O220   1.943       .  S
O216        C227   1.278       .  A
O216       Cd221   2.100       .  S
Cd217       O219   2.069       .  S
Cd217       O220   2.002       .  S
Cd218       O222   2.063       .  S
Cd218       O231   2.067       .  S
Cd218       O220   2.005       .  S
O219        C229   1.274       .  A
O220       Cd221   2.012       .  S
Cd221       O223   2.088       .  S
O222        C229   1.274       .  A
C224       C1168   1.484       .  S
C224        O228   1.276       .  A
C225       C1693   1.482       .  S
C227        C685   1.518       .  S
C229       C1056   1.494       .  S
C230        C748   1.493       .  S
C230        O231   1.274       .  A
C232        C233   1.402       .  A
C232        C237   1.400       .  A
C232        C657   1.491       .  S
C233        C234   1.416       .  A
C233        H238   1.079       .  S
C234        C235   1.419       .  A
C235        C236   1.404       .  A
C235        H239   1.078       .  S
C236        C237   1.401       .  A
C236        C776   1.494       .  S
C237        H240   1.084       .  S
C241        C242   1.396       .  A
C241        C246   1.406       .  A
C241        C692   1.489       .  S
C242        C243   1.398       .  A
C242        H247   1.084       .  S
C243        C244   1.405       .  A
C243        C636   1.494       .  S
C244        C245   1.420       .  A
C244        H248   1.077       .  S
C245        C246   1.419       .  A
C245        C318   1.519       .  S
C246        H249   1.079       .  S
C250        C251   1.400       .  A
C250        C255   1.404       .  A
C250        C601   1.489       .  S
C251        C252   1.398       .  A
C251        H256   1.084       .  S
C252        C253   1.403       .  A
C252        C573   1.491       .  S
C253        C254   1.417       .  A
C253        H257   1.081       .  S
C254        C255   1.413       .  A
C255        H258   1.081       .  S
O259        C275   1.273       .  A
O259       Zn265   2.007       .  S
C260       C1364   1.482       .  S
C260        O276   1.274       .  A
C260        O273   1.275       .  A
O261        C274   1.277       .  A
O261       Cd268   2.093       .  S
O262        C280   1.276       .  A
O262       Cd271   2.079       .  S
O263        C277   1.276       .  A
O263       Cd267   2.086       .  S
O264        C275   1.276       .  A
O264       Cd267   2.082       .  S
Zn265       O276   2.013       .  S
Zn265       O278   2.019       .  S
Zn265       O270   1.939       .  S
O266        C277   1.276       .  A
O266       Cd271   2.073       .  S
Cd267       O269   2.078       .  S
Cd267       O270   2.011       .  S
Cd268       O272   2.086       .  S
Cd268       O281   2.072       .  S
Cd268       O270   2.003       .  S
O269        C279   1.276       .  A
O270       Cd271   2.006       .  S
Cd271       O273   2.078       .  S
O272        C279   1.278       .  A
C274       C1133   1.493       .  S
C274        O278   1.274       .  A
C275       C1252   1.478       .  S
C277        C629   1.500       .  S
C279        C580   1.505       .  S
C280        C664   1.505       .  S
C280        O281   1.275       .  A
C282        C283   1.407       .  A
C282        C287   1.394       .  A
C282        C524   1.492       .  S
C283        C284   1.426       .  A
C283        H288   1.078       .  S
C284        C285   1.416       .  A
C285        C286   1.402       .  A
C285        H289   1.078       .  S
C286        C287   1.395       .  A
C286        C552   1.483       .  S
C287        H290   1.085       .  S
O291        C307   1.272       .  A
O291       Zn297   1.998       .  S
C292        C517   1.481       .  S
C292        O308   1.271       .  A
C292        O305   1.276       .  A
O293        C306   1.278       .  A
O293       Cd300   2.095       .  S
O294        C312   1.276       .  A
O294       Cd303   2.073       .  S
O295        C309   1.275       .  A
O295       Cd299   2.063       .  S
O296        C307   1.275       .  A
O296       Cd299   2.079       .  S
Zn297       O308   2.000       .  S
Zn297       O310   1.991       .  S
Zn297       O302   1.931       .  S
O298        C309   1.276       .  A
O298       Cd303   2.079       .  S
Cd299       O301   2.082       .  S
Cd299       O302   2.004       .  S
Cd300       O304   2.081       .  S
Cd300       O313   2.090       .  S
Cd300       O302   2.008       .  S
O301        C311   1.276       .  A
O302       Cd303   2.010       .  S
Cd303       O305   2.093       .  S
O304        C311   1.276       .  A
C306        C832   1.494       .  S
C306        O310   1.271       .  A
C307        C489   1.482       .  S
C309       C1665   1.490       .  S
C311       C1084   1.515       .  S
C312       C1616   1.493       .  S
C312        O313   1.279       .  A
C314        C315   1.396       .  A
C314        C319   1.403       .  A
C314        C461   1.490       .  S
C315        C316   1.395       .  A
C315        H320   1.085       .  S
C316        C317   1.408       .  A
C316        C440   1.492       .  S
C317        C318   1.422       .  A
C317        H321   1.079       .  S
C318        C319   1.419       .  A
C319        H322   1.077       .  S
C323        C324   1.395       .  A
C323        C328   1.402       .  A
C323        C405   1.487       .  S
C324        C325   1.397       .  A
C324        H329   1.085       .  S
C325        C326   1.404       .  A
C325        C496   1.488       .  S
C326        C327   1.415       .  A
C326        H330   1.080       .  S
C327        C328   1.417       .  A
C328        H331   1.079       .  S
O332        C348   1.273       .  A
O332       Zn338   2.012       .  S
C333        C468   1.482       .  S
C333        O349   1.273       .  A
C333        O346   1.275       .  A
O334        C347   1.276       .  A
O334       Cd341   2.083       .  S
O335        C353   1.274       .  A
O335       Cd344   2.069       .  S
O336        C350   1.275       .  A
O336       Cd340   2.076       .  S
O337        C348   1.276       .  A
O337       Cd340   2.079       .  S
Zn338       O349   2.012       .  S
Zn338       O351   2.012       .  S
Zn338       O343   1.938       .  S
O339        C350   1.274       .  A
O339       Cd344   2.062       .  S
Cd340       O342   2.071       .  S
Cd340       O343   2.005       .  S
Cd341       O345   2.080       .  S
Cd341       O354   2.069       .  S
Cd341       O343   2.003       .  S
O342        C352   1.275       .  A
O343       Cd344   2.002       .  S
Cd344       O346   2.076       .  S
O345        C352   1.277       .  A
C347        C412   1.483       .  S
C347        O351   1.274       .  A
C348        C608   1.481       .  S
C350       C1588   1.490       .  S
C352       C1469   1.491       .  S
C353       C1392   1.513       .  S
C353        O354   1.274       .  A
O355        C371   1.275       .  A
O355       Zn361   2.028       .  S
C356       C1196   1.484       .  S
C356        O372   1.275       .  A
C356        O369   1.276       .  A
O357        C370   1.275       .  A
O357       Cd364   2.069       .  S
O358        C376   1.276       .  A
O358       Cd367   2.078       .  S
O359        C373   1.275       .  A
O359       Cd363   2.067       .  S
O360        C371   1.276       .  A
O360       Cd363   2.079       .  S
Zn361       O372   2.023       .  S
Zn361       O374   2.020       .  S
Zn361       O366   1.941       .  S
O362        C373   1.275       .  A
O362       Cd367   2.066       .  S
Cd363       O365   2.069       .  S
Cd363       O366   2.002       .  S
Cd364       O368   2.077       .  S
Cd364       O377   2.080       .  S
Cd364       O366   2.001       .  S
O365        C375   1.274       .  A
O366       Cd367   2.004       .  S
Cd367       O369   2.084       .  S
O368        C375   1.275       .  A
C370       C1728   1.483       .  S
C370        O374   1.275       .  A
C371       C1504   1.499       .  S
C373        C720   1.485       .  S
C375       C1000   1.515       .  S
C376        C433   1.504       .  S
C376        O377   1.276       .  A
O378        C394   1.274       .  A
O378       Zn384   2.012       .  S
C379        C916   1.481       .  S
C379        O395   1.273       .  A
C379        O392   1.275       .  A
O380        C393   1.276       .  A
O380       Cd387   2.082       .  S
O381        C399   1.276       .  A
O381       Cd390   2.079       .  S
O382        C396   1.276       .  A
O382       Cd386   2.077       .  S
O383        C394   1.276       .  A
O383       Cd386   2.085       .  S
Zn384       O395   2.019       .  S
Zn384       O397   2.016       .  S
Zn384       O389   1.941       .  S
O385        C396   1.276       .  A
O385       Cd390   2.075       .  S
Cd386       O388   2.076       .  S
Cd386       O389   2.007       .  S
Cd387       O391   2.084       .  S
Cd387       O400   2.071       .  S
Cd387       O389   2.006       .  S
O388        C398   1.276       .  A
O389       Cd390   2.009       .  S
Cd390       O392   2.083       .  S
O391        C398   1.276       .  A
C393        C545   1.484       .  S
C393        O397   1.274       .  A
C394        C972   1.491       .  S
C396       C1105   1.497       .  S
C398       C1329   1.503       .  S
C399       C1224   1.490       .  S
C399        O400   1.276       .  A
C401        C402   1.411       .  A
C401        C406   1.410       .  A
C401        C419   1.451       .  S
C402        C403   1.411       .  A
C402        C407   1.495       .  S
C403        C404   1.411       .  A
C403        C408   1.449       .  S
C404        C405   1.412       .  A
C404        C420   1.450       .  S
C405        C406   1.413       .  A
C406        C409   1.451       .  S
C407        C410   1.411       .  A
C407        C414   1.410       .  A
C408        N425   1.157       .  T
C409        N427   1.157       .  T
C410        C411   1.410       .  A
C410        C415   1.451       .  S
C411        C412   1.413       .  A
C411        C417   1.452       .  S
C412        C413   1.414       .  A
C413        C414   1.412       .  A
C413        C416   1.450       .  S
C414        C418   1.450       .  S
C415        N422   1.157       .  T
C416        N423   1.157       .  T
C417        N421   1.157       .  T
C418        N424   1.157       .  T
C419        N428   1.157       .  T
C420        N426   1.157       .  T
C429        C430   1.409       .  A
C429        C434   1.414       .  A
C429        C447   1.451       .  S
C430        C431   1.409       .  A
C430        C435   1.501       .  S
C431        C432   1.413       .  A
C431        C436   1.452       .  S
C432        C433   1.422       .  A
C432        C448   1.451       .  S
C433        C434   1.421       .  A
C434        C437   1.450       .  S
C435        C438   1.412       .  A
C435        C442   1.411       .  A
C436        N453   1.157       .  T
C437        N455   1.157       .  T
C438        C439   1.412       .  A
C438        C443   1.450       .  S
C439        C440   1.413       .  A
C439        C445   1.450       .  S
C440        C441   1.415       .  A
C441        C442   1.413       .  A
C441        C444   1.449       .  S
C442        C446   1.450       .  S
C443        N450   1.157       .  T
C444        N451   1.157       .  T
C445        N449   1.157       .  T
C446        N452   1.157       .  T
C447        N456   1.157       .  T
C448        N454   1.157       .  T
C457        C458   1.411       .  A
C457        C462   1.411       .  A
C457        C475   1.451       .  S
C458        C459   1.409       .  A
C458        C463   1.494       .  S
C459        C460   1.409       .  A
C459        C464   1.450       .  S
C460        C461   1.415       .  A
C460        C476   1.450       .  S
C461        C462   1.414       .  A
C462        C465   1.450       .  S
C463        C466   1.411       .  A
C463        C470   1.410       .  A
C464        N481   1.157       .  T
C465        N483   1.157       .  T
C466        C467   1.409       .  A
C466        C471   1.451       .  S
C467        C468   1.413       .  A
C467        C473   1.451       .  S
C468        C469   1.414       .  A
C469        C470   1.412       .  A
C469        C472   1.451       .  S
C470        C474   1.450       .  S
C471        N478   1.157       .  T
C472        N479   1.157       .  T
C473        N477   1.157       .  T
C474        N480   1.157       .  T
C475        N484   1.157       .  T
C476        N482   1.157       .  T
C485        C486   1.409       .  A
C485        C490   1.408       .  A
C485        C503   1.451       .  S
C486        C487   1.411       .  A
C486        C491   1.493       .  S
C487        C488   1.411       .  A
C487        C492   1.450       .  S
C488        C489   1.413       .  A
C488        C504   1.451       .  S
C489        C490   1.415       .  A
C490        C493   1.451       .  S
C491        C494   1.411       .  A
C491        C498   1.409       .  A
C492        N509   1.157       .  T
C493        N511   1.157       .  T
C494        C495   1.409       .  A
C494        C499   1.451       .  S
C495        C496   1.414       .  A
C495        C501   1.451       .  S
C496        C497   1.414       .  A
C497        C498   1.411       .  A
C497        C500   1.450       .  S
C498        C502   1.450       .  S
C499        N506   1.157       .  T
C500        N507   1.157       .  T
C501        N505   1.157       .  T
C502        N508   1.157       .  T
C503        N512   1.157       .  T
C504        N510   1.157       .  T
C513        C514   1.412       .  A
C513        C518   1.413       .  A
C513        C531   1.450       .  S
C514        C515   1.414       .  A
C514        C519   1.502       .  S
C515        C516   1.412       .  A
C515        C520   1.450       .  S
C516        C517   1.410       .  A
C516        C532   1.451       .  S
C517        C518   1.412       .  A
C518        C521   1.451       .  S
C519        C522   1.412       .  A
C519        C526   1.412       .  A
C520        N537   1.157       .  T
C521        N539   1.157       .  T
C522        C523   1.413       .  A
C522        C527   1.451       .  S
C523        C524   1.413       .  A
C523        C529   1.450       .  S
C524        C525   1.412       .  A
C525        C526   1.414       .  A
C525        C528   1.449       .  S
C526        C530   1.450       .  S
C527        N534   1.157       .  T
C528        N535   1.157       .  T
C529        N533   1.157       .  T
C530        N536   1.157       .  T
C531        N540   1.157       .  T
C532        N538   1.157       .  T
C541        C542   1.409       .  A
C541        C546   1.410       .  A
C541        C559   1.451       .  S
C542        C543   1.411       .  A
C542        C547   1.494       .  S
C543        C544   1.412       .  A
C543        C548   1.450       .  S
C544        C545   1.413       .  A
C544        C560   1.451       .  S
C545        C546   1.414       .  A
C546        C549   1.450       .  S
C547        C550   1.411       .  A
C547        C554   1.412       .  A
C548        N565   1.157       .  T
C549        N567   1.157       .  T
C550        C551   1.411       .  A
C550        C555   1.450       .  S
C551        C552   1.412       .  A
C551        C557   1.450       .  S
C552        C553   1.411       .  A
C553        C554   1.408       .  A
C553        C556   1.451       .  S
C554        C558   1.450       .  S
C555        N562   1.157       .  T
C556        N563   1.157       .  T
C557        N561   1.157       .  T
C558        N564   1.157       .  T
C559        N568   1.157       .  T
C560        N566   1.157       .  T
C569        C570   1.412       .  A
C569        C574   1.411       .  A
C569        C587   1.450       .  S
C570        C571   1.414       .  A
C570        C575   1.503       .  S
C571        C572   1.414       .  A
C571        C576   1.450       .  S
C572        C573   1.413       .  A
C572        C588   1.450       .  S
C573        C574   1.413       .  A
C574        C577   1.451       .  S
C575        C578   1.410       .  A
C575        C582   1.410       .  A
C576        N593   1.157       .  T
C577        N595   1.157       .  T
C578        C579   1.413       .  A
C578        C583   1.452       .  S
C579        C580   1.423       .  A
C579        C585   1.452       .  S
C580        C581   1.421       .  A
C581        C582   1.414       .  A
C581        C584   1.451       .  S
C582        C586   1.451       .  S
C583        N590   1.157       .  T
C584        N591   1.157       .  T
C585        N589   1.158       .  T
C586        N592   1.157       .  T
C587        N596   1.157       .  T
C588        N594   1.157       .  T
C597        C598   1.410       .  A
C597        C602   1.412       .  A
C597        C615   1.450       .  S
C598        C599   1.411       .  A
C598        C603   1.495       .  S
C599        C600   1.409       .  A
C599        C604   1.451       .  S
C600        C601   1.413       .  A
C600        C616   1.451       .  S
C601        C602   1.413       .  A
C602        C605   1.450       .  S
C603        C606   1.410       .  A
C603        C610   1.412       .  A
C604        N621   1.157       .  T
C605        N623   1.157       .  T
C606        C607   1.411       .  A
C606        C611   1.450       .  S
C607        C608   1.412       .  A
C607        C613   1.449       .  S
C608        C609   1.413       .  A
C609        C610   1.410       .  A
C609        C612   1.452       .  S
C610        C614   1.451       .  S
C611        N618   1.157       .  T
C612        N619   1.157       .  T
C613        N617   1.157       .  T
C614        N620   1.157       .  T
C615        N624   1.157       .  T
C616        N622   1.157       .  T
C625        C626   1.410       .  A
C625        C630   1.416       .  A
C625        C643   1.450       .  S
C626        C627   1.410       .  A
C626        C631   1.501       .  S
C627        C628   1.410       .  A
C627        C632   1.452       .  S
C628        C629   1.420       .  A
C628        C644   1.452       .  S
C629        C630   1.420       .  A
C630        C633   1.450       .  S
C631        C634   1.412       .  A
C631        C638   1.411       .  A
C632        N649   1.157       .  T
C633        N651   1.157       .  T
C634        C635   1.412       .  A
C634        C639   1.451       .  S
C635        C636   1.415       .  A
C635        C641   1.451       .  S
C636        C637   1.414       .  A
C637        C638   1.413       .  A
C637        C640   1.450       .  S
C638        C642   1.450       .  S
C639        N646   1.157       .  T
C640        N647   1.157       .  T
C641        N645   1.157       .  T
C642        N648   1.157       .  T
C643        N652   1.157       .  T
C644        N650   1.158       .  T
C653        C654   1.411       .  A
C653        C658   1.412       .  A
C653        C671   1.451       .  S
C654        C655   1.410       .  A
C654        C659   1.498       .  S
C655        C656   1.411       .  A
C655        C660   1.450       .  S
C656        C657   1.413       .  A
C656        C672   1.449       .  S
C657        C658   1.415       .  A
C658        C661   1.451       .  S
C659        C662   1.408       .  A
C659        C666   1.407       .  A
C660        N677   1.157       .  T
C661        N679   1.157       .  T
C662        C663   1.415       .  A
C662        C667   1.451       .  S
C663        C664   1.424       .  A
C663        C669   1.451       .  S
C664        C665   1.424       .  A
C665        C666   1.410       .  A
C665        C668   1.452       .  S
C666        C670   1.452       .  S
C667        N674   1.157       .  T
C668        N675   1.158       .  T
C669        N673   1.158       .  T
C670        N676   1.157       .  T
C671        N680   1.157       .  T
C672        N678   1.157       .  T
C681        C682   1.407       .  A
C681        C686   1.413       .  A
C681        C699   1.453       .  S
C682        C683   1.408       .  A
C682        C687   1.503       .  S
C683        C684   1.417       .  A
C683        C688   1.451       .  S
C684        C685   1.427       .  A
C684        C700   1.450       .  S
C685        C686   1.429       .  A
C686        C689   1.452       .  S
C687        C690   1.413       .  A
C687        C694   1.413       .  A
C688        N705   1.157       .  T
C689        N707   1.158       .  T
C690        C691   1.413       .  A
C690        C695   1.450       .  S
C691        C692   1.411       .  A
C691        C697   1.450       .  S
C692        C693   1.412       .  A
C693        C694   1.412       .  A
C693        C696   1.450       .  S
C694        C698   1.450       .  S
C695        N702   1.157       .  T
C696        N703   1.157       .  T
C697        N701   1.157       .  T
C698        N704   1.157       .  T
C699        N708   1.157       .  T
C700        N706   1.158       .  T
C709        C710   1.410       .  A
C709        C714   1.409       .  A
C709        C727   1.451       .  S
C710        C711   1.411       .  A
C710        C715   1.495       .  S
C711        C712   1.411       .  A
C711        C716   1.451       .  S
C712        C713   1.414       .  A
C712        C728   1.451       .  S
C713        C714   1.414       .  A
C714        C717   1.451       .  S
C715        C718   1.411       .  A
C715        C722   1.409       .  A
C716        N733   1.157       .  T
C717        N735   1.157       .  T
C718        C719   1.410       .  A
C718        C723   1.451       .  S
C719        C720   1.414       .  A
C719        C725   1.451       .  S
C720        C721   1.417       .  A
C721        C722   1.409       .  A
C721        C724   1.452       .  S
C722        C726   1.451       .  S
C723        N730   1.157       .  T
C724        N731   1.157       .  T
C725        N729   1.157       .  T
C726        N732   1.157       .  T
C727        N736   1.157       .  T
C728        N734   1.157       .  T
C737        C738   1.410       .  A
C737        C742   1.412       .  A
C737        C755   1.450       .  S
C738        C739   1.410       .  A
C738        C743   1.496       .  S
C739        C740   1.410       .  A
C739        C744   1.450       .  S
C740        C741   1.415       .  A
C740        C756   1.450       .  S
C741        C742   1.416       .  A
C742        C745   1.451       .  S
C743        C746   1.410       .  A
C743        C750   1.409       .  A
C744        N761   1.157       .  T
C745        N763   1.157       .  T
C746        C747   1.408       .  A
C746        C751   1.452       .  S
C747        C748   1.416       .  A
C747        C753   1.451       .  S
C748        C749   1.419       .  A
C749        C750   1.415       .  A
C749        C752   1.451       .  S
C750        C754   1.450       .  S
C751        N758   1.157       .  T
C752        N759   1.157       .  T
C753        N757   1.157       .  T
C754        N760   1.157       .  T
C755        N764   1.157       .  T
C756        N762   1.157       .  T
C765        C766   1.410       .  A
C765        C770   1.409       .  A
C765        C783   1.451       .  S
C766        C767   1.411       .  A
C766        C771   1.497       .  S
C767        C768   1.414       .  A
C767        C772   1.450       .  S
C768        C769   1.415       .  A
C768        C784   1.449       .  S
C769        C770   1.415       .  A
C770        C773   1.452       .  S
C771        C774   1.411       .  A
C771        C778   1.409       .  A
C772        N789   1.157       .  T
C773        N791   1.157       .  T
C774        C775   1.413       .  A
C774        C779   1.450       .  S
C775        C776   1.415       .  A
C775        C781   1.450       .  S
C776        C777   1.414       .  A
C777        C778   1.410       .  A
C777        C780   1.449       .  S
C778        C782   1.451       .  S
C779        N786   1.157       .  T
C780        N787   1.157       .  T
C781        N785   1.157       .  T
C782        N788   1.157       .  T
C783        N792   1.157       .  T
C784        N790   1.157       .  T
C793        C794   1.413       .  A
C793        C798   1.408       .  A
C793        C811   1.451       .  S
C794        C795   1.414       .  A
C794        C799   1.496       .  S
C795        C796   1.409       .  A
C795        C800   1.451       .  S
C796        C797   1.410       .  A
C796        C812   1.451       .  S
C797        C798   1.410       .  A
C798        C801   1.451       .  S
C799        C802   1.413       .  A
C799        C806   1.412       .  A
C800        N817   1.157       .  T
C801        N819   1.157       .  T
C802        C803   1.410       .  A
C802        C807   1.451       .  S
C803        C804   1.411       .  A
C803        C809   1.451       .  S
C804        C805   1.412       .  A
C805        C806   1.409       .  A
C805        C808   1.452       .  S
C806        C810   1.451       .  S
C807        N814   1.157       .  T
C808        N815   1.157       .  T
C809        N813   1.157       .  T
C810        N816   1.157       .  T
C811        N820   1.157       .  T
C812        N818   1.157       .  T
C821        C822   1.410       .  A
C821        C826   1.412       .  A
C821        C839   1.450       .  S
C822        C823   1.410       .  A
C822        C827   1.498       .  S
C823        C824   1.412       .  A
C823        C828   1.451       .  S
C824        C825   1.419       .  A
C824        C840   1.452       .  S
C825        C826   1.416       .  A
C826        C829   1.450       .  S
C827        C830   1.411       .  A
C827        C834   1.408       .  A
C828        N845   1.157       .  T
C829        N847   1.157       .  T
C830        C831   1.413       .  A
C830        C835   1.450       .  S
C831        C832   1.417       .  A
C831        C837   1.451       .  S
C832        C833   1.420       .  A
C833        C834   1.410       .  A
C833        C836   1.453       .  S
C834        C838   1.451       .  S
C835        N842   1.157       .  T
C836        N843   1.158       .  T
C837        N841   1.157       .  T
C838        N844   1.157       .  T
C839        N848   1.157       .  T
C840        N846   1.157       .  T
C849        C850   1.410       .  A
C849        C854   1.411       .  A
C849        C867   1.450       .  S
C850        C851   1.411       .  A
C850        C855   1.491       .  S
C851        C852   1.407       .  A
C851        C856   1.451       .  S
C852        C853   1.412       .  A
C852        C868   1.452       .  S
C853        C854   1.413       .  A
C854        C857   1.450       .  S
C855        C858   1.409       .  A
C855        C862   1.410       .  A
C856        N873   1.157       .  T
C857        N875   1.157       .  T
C858        C859   1.410       .  A
C858        C863   1.450       .  S
C859        C860   1.412       .  A
C859        C865   1.450       .  S
C860        C861   1.414       .  A
C861        C862   1.408       .  A
C861        C864   1.452       .  S
C862        C866   1.451       .  S
C863        N870   1.157       .  T
C864        N871   1.157       .  T
C865        N869   1.157       .  T
C866        N872   1.157       .  T
C867        N876   1.157       .  T
C868        N874   1.157       .  T
C877        C878   1.412       .  A
C877        C882   1.412       .  A
C877        C895   1.450       .  S
C878        C879   1.412       .  A
C878        C883   1.502       .  S
C879        C880   1.415       .  A
C879        C884   1.450       .  S
C880        C881   1.414       .  A
C880        C896   1.450       .  S
C881        C882   1.412       .  A
C882        C885   1.451       .  S
C883        C886   1.412       .  A
C883        C890   1.412       .  A
C884        N901   1.157       .  T
C885        N903   1.157       .  T
C886        C887   1.415       .  A
C886        C891   1.450       .  S
C887        C888   1.414       .  A
C887        C893   1.450       .  S
C888        C889   1.413       .  A
C889        C890   1.412       .  A
C889        C892   1.451       .  S
C890        C894   1.450       .  S
C891        N898   1.157       .  T
C892        N899   1.157       .  T
C893        N897   1.157       .  T
C894        N900   1.157       .  T
C895        N904   1.157       .  T
C896        N902   1.157       .  T
C905        C906   1.412       .  A
C905        C910   1.410       .  A
C905        C923   1.451       .  S
C906        C907   1.412       .  A
C906        C911   1.498       .  S
C907        C908   1.413       .  A
C907        C912   1.450       .  S
C908        C909   1.412       .  A
C908        C924   1.450       .  S
C909        C910   1.411       .  A
C910        C913   1.451       .  S
C911        C914   1.412       .  A
C911        C918   1.412       .  A
C912        N929   1.157       .  T
C913        N931   1.157       .  T
C914        C915   1.411       .  A
C914        C919   1.450       .  S
C915        C916   1.410       .  A
C915        C921   1.450       .  S
C916        C917   1.412       .  A
C917        C918   1.413       .  A
C917        C920   1.450       .  S
C918        C922   1.450       .  S
C919        N926   1.157       .  T
C920        N927   1.157       .  T
C921        N925   1.157       .  T
C922        N928   1.157       .  T
C923        N932   1.157       .  T
C924        N930   1.157       .  T
C933        C934   1.411       .  A
C933        C938   1.412       .  A
C933        C951   1.450       .  S
C934        C935   1.410       .  A
C934        C939   1.495       .  S
C935        C936   1.409       .  A
C935        C940   1.451       .  S
C936        C937   1.415       .  A
C936        C952   1.452       .  S
C937        C938   1.413       .  A
C938        C941   1.450       .  S
C939        C942   1.410       .  A
C939        C946   1.409       .  A
C940        N957   1.157       .  T
C941        N959   1.157       .  T
C942        C943   1.411       .  A
C942        C947   1.451       .  S
C943        C944   1.417       .  A
C943        C949   1.451       .  S
C944        C945   1.416       .  A
C945        C946   1.409       .  A
C945        C948   1.451       .  S
C946        C950   1.451       .  S
C947        N954   1.157       .  T
C948        N955   1.157       .  T
C949        N953   1.157       .  T
C950        N956   1.157       .  T
C951        N960   1.157       .  T
C952        N958   1.157       .  T
C961        C962   1.411       .  A
C961        C966   1.412       .  A
C961        C979   1.451       .  S
C962        C963   1.410       .  A
C962        C967   1.499       .  S
C963        C964   1.412       .  A
C963        C968   1.450       .  S
C964        C965   1.416       .  A
C964        C980   1.451       .  S
C965        C966   1.416       .  A
C966        C969   1.451       .  S
C967        C970   1.410       .  A
C967        C974   1.410       .  A
C968        N985   1.157       .  T
C969        N987   1.157       .  T
C970        C971   1.410       .  A
C970        C975   1.451       .  S
C971        C972   1.416       .  A
C971        C977   1.452       .  S
C972        C973   1.417       .  A
C973        C974   1.414       .  A
C973        C976   1.450       .  S
C974        C978   1.450       .  S
C975        N982   1.157       .  T
C976        N983   1.157       .  T
C977        N981   1.157       .  T
C978        N984   1.157       .  T
C979        N988   1.157       .  T
C980        N986   1.157       .  T
C989        C990   1.414       .  A
C989        C994   1.410       .  A
C989       C1007   1.451       .  S
C990        C991   1.413       .  A
C990        C995   1.501       .  S
C991        C992   1.411       .  A
C991        C996   1.450       .  S
C992        C993   1.412       .  A
C992       C1008   1.451       .  S
C993        C994   1.410       .  A
C994        C997   1.450       .  S
C995        C998   1.408       .  A
C995       C1002   1.409       .  A
C996       N1013   1.157       .  T
C997       N1015   1.157       .  T
C998        C999   1.413       .  A
C998       C1003   1.452       .  S
C999       C1000   1.427       .  A
C999       C1005   1.451       .  S
C1000      C1001   1.428       .  A
C1001      C1002   1.412       .  A
C1001      C1004   1.452       .  S
C1002      C1006   1.454       .  S
C1003      N1010   1.157       .  T
C1004      N1011   1.158       .  T
C1005      N1009   1.158       .  T
C1006      N1012   1.157       .  T
C1007      N1016   1.157       .  T
C1008      N1014   1.157       .  T
C1017      C1018   1.411       .  A
C1017      C1022   1.411       .  A
C1017      C1035   1.450       .  S
C1018      C1019   1.409       .  A
C1018      C1023   1.492       .  S
C1019      C1020   1.407       .  A
C1019      C1024   1.451       .  S
C1020      C1021   1.414       .  A
C1020      C1036   1.452       .  S
C1021      C1022   1.413       .  A
C1022      C1025   1.450       .  S
C1023      C1026   1.410       .  A
C1023      C1030   1.410       .  A
C1024      N1041   1.157       .  T
C1025      N1043   1.157       .  T
C1026      C1027   1.408       .  A
C1026      C1031   1.452       .  S
C1027      C1028   1.414       .  A
C1027      C1033   1.452       .  S
C1028      C1029   1.412       .  A
C1029      C1030   1.411       .  A
C1029      C1032   1.450       .  S
C1030      C1034   1.450       .  S
C1031      N1038   1.157       .  T
C1032      N1039   1.157       .  T
C1033      N1037   1.158       .  T
C1034      N1040   1.157       .  T
C1035      N1044   1.157       .  T
C1036      N1042   1.157       .  T
C1045      C1046   1.411       .  A
C1045      C1050   1.410       .  A
C1045      C1063   1.450       .  S
C1046      C1047   1.412       .  A
C1046      C1051   1.495       .  S
C1047      C1048   1.409       .  A
C1047      C1052   1.450       .  S
C1048      C1049   1.411       .  A
C1048      C1064   1.451       .  S
C1049      C1050   1.411       .  A
C1050      C1053   1.450       .  S
C1051      C1054   1.408       .  A
C1051      C1058   1.410       .  A
C1052      N1069   1.157       .  T
C1053      N1071   1.157       .  T
C1054      C1055   1.411       .  A
C1054      C1059   1.451       .  S
C1055      C1056   1.421       .  A
C1055      C1061   1.452       .  S
C1056      C1057   1.418       .  A
C1057      C1058   1.410       .  A
C1057      C1060   1.452       .  S
C1058      C1062   1.451       .  S
C1059      N1066   1.157       .  T
C1060      N1067   1.157       .  T
C1061      N1065   1.158       .  T
C1062      N1068   1.157       .  T
C1063      N1072   1.157       .  T
C1064      N1070   1.157       .  T
C1073      C1074   1.411       .  A
C1073      C1078   1.412       .  A
C1073      C1091   1.450       .  S
C1074      C1075   1.412       .  A
C1074      C1079   1.501       .  S
C1075      C1076   1.412       .  A
C1075      C1080   1.450       .  S
C1076      C1077   1.413       .  A
C1076      C1092   1.450       .  S
C1077      C1078   1.413       .  A
C1078      C1081   1.450       .  S
C1079      C1082   1.407       .  A
C1079      C1086   1.407       .  A
C1080      N1097   1.157       .  T
C1081      N1099   1.157       .  T
C1082      C1083   1.413       .  A
C1082      C1087   1.453       .  S
C1083      C1084   1.427       .  A
C1083      C1089   1.451       .  S
C1084      C1085   1.427       .  A
C1085      C1086   1.416       .  A
C1085      C1088   1.451       .  S
C1086      C1090   1.451       .  S
C1087      N1094   1.157       .  T
C1088      N1095   1.158       .  T
C1089      N1093   1.158       .  T
C1090      N1096   1.157       .  T
C1091      N1100   1.157       .  T
C1092      N1098   1.157       .  T
C1101      C1102   1.410       .  A
C1101      C1106   1.412       .  A
C1101      C1119   1.451       .  S
C1102      C1103   1.411       .  A
C1102      C1107   1.500       .  S
C1103      C1104   1.412       .  A
C1103      C1108   1.452       .  S
C1104      C1105   1.419       .  A
C1104      C1120   1.452       .  S
C1105      C1106   1.419       .  A
C1106      C1109   1.451       .  S
C1107      C1110   1.411       .  A
C1107      C1114   1.412       .  A
C1108      N1125   1.157   1_455  T
C1109      N1127   1.157       .  T
C1110      C1111   1.411   1_455  A
C1110      C1115   1.450       .  S
C1111      C1112   1.415       .  A
C1111      C1117   1.451       .  S
C1112      C1113   1.414       .  A
C1113      C1114   1.412   1_655  A
C1113      C1116   1.450       .  S
C1114      C1118   1.450       .  S
C1115      N1122   1.157       .  T
C1116      N1123   1.157       .  T
C1117      N1121   1.157       .  T
C1118      N1124   1.157       .  T
C1119      N1128   1.157       .  T
C1120      N1126   1.158       .  T
C1129      C1130   1.411       .  A
C1129      C1134   1.413       .  A
C1129      C1147   1.451       .  S
C1130      C1131   1.412       .  A
C1130      C1135   1.503       .  S
C1131      C1132   1.414       .  A
C1131      C1136   1.450       .  S
C1132      C1133   1.415       .  A
C1132      C1148   1.450       .  S
C1133      C1134   1.417       .  A
C1134      C1137   1.451       .  S
C1135      C1138   1.414       .  A
C1135      C1142   1.412       .  A
C1136      N1153   1.157       .  T
C1137      N1155   1.158       .  T
C1138      C1139   1.416       .  A
C1138      C1143   1.449       .  S
C1139      C1140   1.412       .  A
C1139      C1145   1.449       .  S
C1140      C1141   1.413       .  A
C1141      C1142   1.409       .  A
C1141      C1144   1.452       .  S
C1142      C1146   1.451       .  S
C1143      N1150   1.157       .  T
C1144      N1151   1.157       .  T
C1145      N1149   1.157       .  T
C1146      N1152   1.157       .  T
C1147      N1156   1.157       .  T
C1148      N1154   1.157       .  T
C1157      C1158   1.412       .  A
C1157      C1162   1.413   1_455  A
C1157      C1175   1.450       .  S
C1158      C1159   1.411       .  A
C1158      C1163   1.498       .  S
C1159      C1160   1.410   1_455  A
C1159      C1164   1.450       .  S
C1160      C1161   1.412       .  A
C1160      C1176   1.451       .  S
C1161      C1162   1.413       .  A
C1162      C1165   1.451       .  S
C1163      C1166   1.411       .  A
C1163      C1170   1.411       .  A
C1164      N1181   1.157       .  T
C1165      N1183   1.157       .  T
C1166      C1167   1.410       .  A
C1166      C1171   1.451       .  S
C1167      C1168   1.412       .  A
C1167      C1173   1.451       .  S
C1168      C1169   1.414       .  A
C1169      C1170   1.414       .  A
C1169      C1172   1.450       .  S
C1170      C1174   1.450       .  S
C1171      N1178   1.157   1_455  T
C1172      N1179   1.157       .  T
C1173      N1177   1.157       .  T
C1174      N1180   1.157       .  T
C1175      N1184   1.157       .  T
C1176      N1182   1.157       .  T
C1185      C1186   1.415       .  A
C1185      C1190   1.410       .  A
C1185      C1203   1.451       .  S
C1186      C1187   1.412       .  A
C1186      C1191   1.499       .  S
C1187      C1188   1.411       .  A
C1187      C1192   1.450       .  S
C1188      C1189   1.412   1_455  A
C1188      C1204   1.450   1_455  S
C1189      C1190   1.409   1_655  A
C1190      C1193   1.450   1_455  S
C1191      C1194   1.413       .  A
C1191      C1198   1.411       .  A
C1192      N1209   1.157       .  T
C1193      N1211   1.157       .  T
C1194      C1195   1.412       .  A
C1194      C1199   1.450       .  S
C1195      C1196   1.412       .  A
C1195      C1201   1.450       .  S
C1196      C1197   1.412       .  A
C1197      C1198   1.411       .  A
C1197      C1200   1.450       .  S
C1198      C1202   1.450       .  S
C1199      N1206   1.157       .  T
C1200      N1207   1.157       .  T
C1201      N1205   1.157       .  T
C1202      N1208   1.157   1_455  T
C1203      N1212   1.157       .  T
C1204      N1210   1.157       .  T
C1213      C1214   1.410       .  A
C1213      C1218   1.412   1_545  A
C1213      C1231   1.450       .  S
C1214      C1215   1.412       .  A
C1214      C1219   1.499       .  S
C1215      C1216   1.412   1_455  A
C1215      C1220   1.451       .  S
C1216      C1217   1.416   1_545  A
C1216      C1232   1.450       .  S
C1217      C1218   1.417   1_655  A
C1218      C1221   1.451       .  S
C1219      C1222   1.411       .  A
C1219      C1226   1.411       .  A
C1220      N1237   1.157       .  T
C1221      N1239   1.157       .  T
C1222      C1223   1.411       .  A
C1222      C1227   1.451       .  S
C1223      C1224   1.417       .  A
C1223      C1229   1.452       .  S
C1224      C1225   1.416       .  A
C1225      C1226   1.413       .  A
C1225      C1228   1.451       .  S
C1226      C1230   1.450       .  S
C1227      N1234   1.157       .  T
C1228      N1235   1.157       .  T
C1229      N1233   1.158       .  T
C1230      N1236   1.157       .  T
C1231      N1240   1.157       .  T
C1232      N1238   1.157       .  T
C1241      C1242   1.413       .  A
C1241      C1246   1.410       .  A
C1241      C1259   1.451       .  S
C1242      C1243   1.411       .  A
C1242      C1247   1.495       .  S
C1243      C1244   1.409       .  A
C1243      C1248   1.450       .  S
C1244      C1245   1.412       .  A
C1244      C1260   1.451       .  S
C1245      C1246   1.412       .  A
C1246      C1249   1.451       .  S
C1247      C1250   1.412       .  A
C1247      C1254   1.412       .  A
C1248      N1265   1.157       .  T
C1249      N1267   1.157       .  T
C1250      C1251   1.409       .  A
C1250      C1255   1.451       .  S
C1251      C1252   1.411       .  A
C1251      C1257   1.450       .  S
C1252      C1253   1.412       .  A
C1253      C1254   1.411       .  A
C1253      C1256   1.451       .  S
C1254      C1258   1.450       .  S
C1255      N1262   1.157       .  T
C1256      N1263   1.157       .  T
C1257      N1261   1.157       .  T
C1258      N1264   1.157       .  T
C1259      N1268   1.157       .  T
C1260      N1266   1.157       .  T
C1269      C1270   1.412       .  A
C1269      C1274   1.410       .  A
C1269      C1287   1.451       .  S
C1270      C1271   1.410       .  A
C1270      C1275   1.495       .  S
C1271      C1272   1.411   1_545  A
C1271      C1276   1.450       .  S
C1272      C1273   1.413       .  A
C1272      C1288   1.450       .  S
C1273      C1274   1.412   1_565  A
C1274      C1277   1.451       .  S
C1275      C1278   1.407       .  A
C1275      C1282   1.407       .  A
C1276      N1293   1.157       .  T
C1277      N1295   1.157       .  T
C1278      C1279   1.413       .  A
C1278      C1283   1.450       .  S
C1279      C1280   1.422       .  A
C1279      C1285   1.451       .  S
C1280      C1281   1.424       .  A
C1281      C1282   1.410       .  A
C1281      C1284   1.451       .  S
C1282      C1286   1.453       .  S
C1283      N1290   1.157       .  T
C1284      N1291   1.158       .  T
C1285      N1289   1.158       .  T
C1286      N1292   1.157       .  T
C1287      N1296   1.157       .  T
C1288      N1294   1.157       .  T
C1297      C1298   1.410       .  A
C1297      C1302   1.410       .  A
C1297      C1315   1.450       .  S
C1298      C1299   1.411       .  A
C1298      C1303   1.494       .  S
C1299      C1300   1.409       .  A
C1299      C1304   1.450       .  S
C1300      C1301   1.412       .  A
C1300      C1316   1.451       .  S
C1301      C1302   1.413       .  A
C1302      C1305   1.451   1_545  S
C1303      C1306   1.406       .  A
C1303      C1310   1.409       .  A
C1304      N1321   1.157       .  T
C1305      N1323   1.157       .  T
C1306      C1307   1.410       .  A
C1306      C1311   1.452       .  S
C1307      C1308   1.423       .  A
C1307      C1313   1.452       .  S
C1308      C1309   1.419       .  A
C1309      C1310   1.412       .  A
C1309      C1312   1.451       .  S
C1310      C1314   1.451       .  S
C1311      N1318   1.157       .  T
C1312      N1319   1.157       .  T
C1313      N1317   1.158       .  T
C1314      N1320   1.157       .  T
C1315      N1324   1.157       .  T
C1316      N1322   1.157       .  T
C1325      C1326   1.409       .  A
C1325      C1330   1.412       .  A
C1325      C1343   1.452       .  S
C1326      C1327   1.409       .  A
C1326      C1331   1.501       .  S
C1327      C1328   1.415       .  A
C1327      C1332   1.450       .  S
C1328      C1329   1.421       .  A
C1328      C1344   1.450       .  S
C1329      C1330   1.422       .  A
C1330      C1333   1.452       .  S
C1331      C1334   1.411       .  A
C1331      C1338   1.412       .  A
C1332      N1349   1.157       .  T
C1333      N1351   1.158       .  T
C1334      C1335   1.413       .  A
C1334      C1339   1.450       .  S
C1335      C1336   1.414       .  A
C1335      C1341   1.450       .  S
C1336      C1337   1.415       .  A
C1337      C1338   1.413       .  A
C1337      C1340   1.451   1_545  S
C1338      C1342   1.450       .  S
C1339      N1346   1.157       .  T
C1340      N1347   1.157       .  T
C1341      N1345   1.157       .  T
C1342      N1348   1.157       .  T
C1343      N1352   1.157       .  T
C1344      N1350   1.157       .  T
C1353      C1354   1.411       .  A
C1353      C1358   1.407       .  A
C1353      C1371   1.451       .  S
C1354      C1355   1.412       .  A
C1354      C1359   1.496       .  S
C1355      C1356   1.413       .  A
C1355      C1360   1.449       .  S
C1356      C1357   1.411       .  A
C1356      C1372   1.450       .  S
C1357      C1358   1.413       .  A
C1358      C1361   1.452       .  S
C1359      C1362   1.412       .  A
C1359      C1366   1.410       .  A
C1360      N1377   1.157       .  T
C1361      N1379   1.157       .  T
C1362      C1363   1.412       .  A
C1362      C1367   1.450       .  S
C1363      C1364   1.413       .  A
C1363      C1369   1.451       .  S
C1364      C1365   1.413       .  A
C1365      C1366   1.409       .  A
C1365      C1368   1.451       .  S
C1366      C1370   1.451       .  S
C1367      N1374   1.157       .  T
C1368      N1375   1.157       .  T
C1369      N1373   1.157       .  T
C1370      N1376   1.157       .  T
C1371      N1380   1.157       .  T
C1372      N1378   1.157       .  T
C1381      C1382   1.410       .  A
C1381      C1386   1.409       .  A
C1381      C1399   1.450       .  S
C1382      C1383   1.411       .  A
C1382      C1387   1.494       .  S
C1383      C1384   1.409       .  A
C1383      C1388   1.450       .  S
C1384      C1385   1.411       .  A
C1384      C1400   1.451       .  S
C1385      C1386   1.412       .  A
C1386      C1389   1.450       .  S
C1387      C1390   1.406       .  A
C1387      C1394   1.404       .  A
C1388      N1405   1.157       .  T
C1389      N1407   1.157       .  T
C1390      C1391   1.411       .  A
C1390      C1395   1.453       .  S
C1391      C1392   1.429       .  A
C1391      C1397   1.452       .  S
C1392      C1393   1.429       .  A
C1393      C1394   1.412       .  A
C1393      C1396   1.451       .  S
C1394      C1398   1.452       .  S
C1395      N1402   1.157       .  T
C1396      N1403   1.158       .  T
C1397      N1401   1.158       .  T
C1398      N1404   1.157       .  T
C1399      N1408   1.157       .  T
C1400      N1406   1.157       .  T
C1409      C1410   1.413       .  A
C1409      C1414   1.412       .  A
C1409      C1427   1.450       .  S
C1410      C1411   1.413       .  A
C1410      C1415   1.499       .  S
C1411      C1412   1.409       .  A
C1411      C1416   1.451       .  S
C1412      C1413   1.410       .  A
C1412      C1428   1.451       .  S
C1413      C1414   1.411       .  A
C1414      C1417   1.450       .  S
C1415      C1418   1.411       .  A
C1415      C1422   1.409       .  A
C1416      N1433   1.157       .  T
C1417      N1435   1.157       .  T
C1418      C1419   1.412       .  A
C1418      C1423   1.451       .  S
C1419      C1420   1.419       .  A
C1419      C1425   1.451       .  S
C1420      C1421   1.421       .  A
C1421      C1422   1.411       .  A
C1421      C1424   1.452       .  S
C1422      C1426   1.451       .  S
C1423      N1430   1.157       .  T
C1424      N1431   1.158       .  T
C1425      N1429   1.157       .  T
C1426      N1432   1.157       .  T
C1427      N1436   1.157       .  T
C1428      N1434   1.157       .  T
C1437      C1438   1.407       .  A
C1437      C1442   1.412       .  A
C1437      C1455   1.451       .  S
C1438      C1439   1.407       .  A
C1438      C1443   1.499       .  S
C1439      C1440   1.415       .  A
C1439      C1444   1.452       .  S
C1440      C1441   1.428       .  A
C1440      C1456   1.451       .  S
C1441      C1442   1.425       .  A
C1442      C1445   1.451       .  S
C1443      C1446   1.411       .  A
C1443      C1450   1.411       .  A
C1444      N1461   1.157       .  T
C1445      N1463   1.157       .  T
C1446      C1447   1.410   1_455  A
C1446      C1451   1.451       .  S
C1447      C1448   1.413       .  A
C1447      C1453   1.450       .  S
C1448      C1449   1.413       .  A
C1449      C1450   1.414   1_655  A
C1449      C1452   1.450       .  S
C1450      C1454   1.449       .  S
C1451      N1458   1.157       .  T
C1452      N1459   1.157       .  T
C1453      N1457   1.157       .  T
C1454      N1460   1.157       .  T
C1455      N1464   1.157   1_455  T
C1456      N1462   1.158       .  T
C1465      C1466   1.411       .  A
C1465      C1470   1.412       .  A
C1465      C1483   1.451       .  S
C1466      C1467   1.410       .  A
C1466      C1471   1.498       .  S
C1467      C1468   1.411       .  A
C1467      C1472   1.451       .  S
C1468      C1469   1.417       .  A
C1468      C1484   1.451       .  S
C1469      C1470   1.416       .  A
C1470      C1473   1.450       .  S
C1471      C1474   1.411       .  A
C1471      C1478   1.412       .  A
C1472      N1489   1.157       .  T
C1473      N1491   1.157       .  T
C1474      C1475   1.411       .  A
C1474      C1479   1.450       .  S
C1475      C1476   1.416       .  A
C1475      C1481   1.451       .  S
C1476      C1477   1.415       .  A
C1477      C1478   1.410       .  A
C1477      C1480   1.451       .  S
C1478      C1482   1.451       .  S
C1479      N1486   1.157       .  T
C1480      N1487   1.157       .  T
C1481      N1485   1.157       .  T
C1482      N1488   1.157       .  T
C1483      N1492   1.157       .  T
C1484      N1490   1.157       .  T
C1493      C1494   1.411       .  A
C1493      C1498   1.414   1_455  A
C1493      C1511   1.451       .  S
C1494      C1495   1.410       .  A
C1494      C1499   1.501       .  S
C1495      C1496   1.412   1_455  A
C1495      C1500   1.450       .  S
C1496      C1497   1.417       .  A
C1496      C1512   1.451       .  S
C1497      C1498   1.417       .  A
C1498      C1501   1.451       .  S
C1499      C1502   1.410       .  A
C1499      C1506   1.409       .  A
C1500      N1517   1.157       .  T
C1501      N1519   1.157       .  T
C1502      C1503   1.412       .  A
C1502      C1507   1.452       .  S
C1503      C1504   1.419       .  A
C1503      C1509   1.451       .  S
C1504      C1505   1.420       .  A
C1505      C1506   1.414       .  A
C1505      C1508   1.451       .  S
C1506      C1510   1.450       .  S
C1507      N1514   1.157   1_455  T
C1508      N1515   1.157       .  T
C1509      N1513   1.157       .  T
C1510      N1516   1.157       .  T
C1511      N1520   1.157       .  T
C1512      N1518   1.157       .  T
C1521      C1522   1.410       .  A
C1521      C1526   1.413       .  A
C1521      C1539   1.449       .  S
C1522      C1523   1.411       .  A
C1522      C1527   1.501       .  S
C1523      C1524   1.412   1_455  A
C1523      C1528   1.451       .  S
C1524      C1525   1.416       .  A
C1524      C1540   1.451       .  S
C1525      C1526   1.416   1_655  A
C1526      C1529   1.450       .  S
C1527      C1530   1.412       .  A
C1527      C1534   1.411       .  A
C1528      N1545   1.157       .  T
C1529      N1547   1.157       .  T
C1530      C1531   1.411       .  A
C1530      C1535   1.451       .  S
C1531      C1532   1.414       .  A
C1531      C1537   1.452       .  S
C1532      C1533   1.415       .  A
C1533      C1534   1.415       .  A
C1533      C1536   1.450       .  S
C1534      C1538   1.449       .  S
C1535      N1542   1.157       .  T
C1536      N1543   1.157       .  T
C1537      N1541   1.157       .  T
C1538      N1544   1.157       .  T
C1539      N1548   1.157       .  T
C1540      N1546   1.157       .  T
C1549      C1550   1.410       .  A
C1549      C1554   1.411   1_455  A
C1549      C1567   1.450       .  S
C1550      C1551   1.411       .  A
C1550      C1555   1.495       .  S
C1551      C1552   1.409   1_545  A
C1551      C1556   1.451       .  S
C1552      C1553   1.412   1_455  A
C1552      C1568   1.451       .  S
C1553      C1554   1.415   1_565  A
C1554      C1557   1.451       .  S
C1555      C1558   1.409       .  A
C1555      C1562   1.408       .  A
C1556      N1573   1.157       .  T
C1557      N1575   1.157       .  T
C1558      C1559   1.413       .  A
C1558      C1563   1.451       .  S
C1559      C1560   1.420       .  A
C1559      C1565   1.451       .  S
C1560      C1561   1.419       .  A
C1561      C1562   1.409       .  A
C1561      C1564   1.451       .  S
C1562      C1566   1.451       .  S
C1563      N1570   1.157   1_455  T
C1564      N1571   1.157       .  T
C1565      N1569   1.158       .  T
C1566      N1572   1.157       .  T
C1567      N1576   1.157       .  T
C1568      N1574   1.157       .  T
C1577      C1578   1.410       .  A
C1577      C1582   1.411       .  A
C1577      C1595   1.450       .  S
C1578      C1579   1.410       .  A
C1578      C1583   1.497       .  S
C1579      C1580   1.411       .  A
C1579      C1584   1.451       .  S
C1580      C1581   1.417       .  A
C1580      C1596   1.451       .  S
C1581      C1582   1.414       .  A
C1582      C1585   1.450       .  S
C1583      C1586   1.410       .  A
C1583      C1590   1.410       .  A
C1584      N1601   1.157       .  T
C1585      N1603   1.157       .  T
C1586      C1587   1.410       .  A
C1586      C1591   1.452       .  S
C1587      C1588   1.418       .  A
C1587      C1593   1.453       .  S
C1588      C1589   1.416       .  A
C1589      C1590   1.413       .  A
C1589      C1592   1.451       .  S
C1590      C1594   1.450       .  S
C1591      N1598   1.157       .  T
C1592      N1599   1.157       .  T
C1593      N1597   1.158       .  T
C1594      N1600   1.157       .  T
C1595      N1604   1.157       .  T
C1596      N1602   1.157       .  T
C1605      C1606   1.414       .  A
C1605      C1610   1.410   1_545  A
C1605      C1623   1.451       .  S
C1606      C1607   1.414       .  A
C1606      C1611   1.504       .  S
C1607      C1608   1.413       .  A
C1607      C1612   1.450       .  S
C1608      C1609   1.412   1_545  A
C1608      C1624   1.450       .  S
C1609      C1610   1.412       .  A
C1610      C1613   1.451       .  S
C1611      C1614   1.413       .  A
C1611      C1618   1.412       .  A
C1612      N1629   1.157       .  T
C1613      N1631   1.157       .  T
C1614      C1615   1.413       .  A
C1614      C1619   1.451       .  S
C1615      C1616   1.416       .  A
C1615      C1621   1.451       .  S
C1616      C1617   1.416       .  A
C1617      C1618   1.412       .  A
C1617      C1620   1.449       .  S
C1618      C1622   1.451       .  S
C1619      N1626   1.157       .  T
C1620      N1627   1.157       .  T
C1621      N1625   1.157       .  T
C1622      N1628   1.157       .  T
C1623      N1632   1.157       .  T
C1624      N1630   1.157   1_545  T
C1633      C1634   1.411       .  A
C1633      C1638   1.410       .  A
C1633      C1651   1.451       .  S
C1634      C1635   1.411       .  A
C1634      C1639   1.495       .  S
C1635      C1636   1.410       .  A
C1635      C1640   1.451       .  S
C1636      C1637   1.413       .  A
C1636      C1652   1.451       .  S
C1637      C1638   1.414       .  A
C1638      C1641   1.451   1_545  S
C1639      C1642   1.410       .  A
C1639      C1646   1.409       .  A
C1640      N1657   1.157       .  T
C1641      N1659   1.157       .  T
C1642      C1643   1.410       .  A
C1642      C1647   1.451       .  S
C1643      C1644   1.417       .  A
C1643      C1649   1.450       .  S
C1644      C1645   1.418       .  A
C1645      C1646   1.411       .  A
C1645      C1648   1.450       .  S
C1646      C1650   1.451       .  S
C1647      N1654   1.157       .  T
C1648      N1655   1.157       .  T
C1649      N1653   1.157       .  T
C1650      N1656   1.157       .  T
C1651      N1660   1.157       .  T
C1652      N1658   1.157       .  T
C1661      C1662   1.410       .  A
C1661      C1666   1.413       .  A
C1661      C1679   1.450       .  S
C1662      C1663   1.409       .  A
C1662      C1667   1.495       .  S
C1663      C1664   1.408       .  A
C1663      C1668   1.452       .  S
C1664      C1665   1.418       .  A
C1664      C1680   1.453       .  S
C1665      C1666   1.417       .  A
C1666      C1669   1.450       .  S
C1667      C1670   1.410       .  A
C1667      C1674   1.411       .  A
C1668      N1685   1.157       .  T
C1669      N1687   1.157       .  T
C1670      C1671   1.410       .  A
C1670      C1675   1.450       .  S
C1671      C1672   1.413       .  A
C1671      C1677   1.450       .  S
C1672      C1673   1.415       .  A
C1673      C1674   1.410       .  A
C1673      C1676   1.451   1_545  S
C1674      C1678   1.451       .  S
C1675      N1682   1.157       .  T
C1676      N1683   1.157       .  T
C1677      N1681   1.157       .  T
C1678      N1684   1.157       .  T
C1679      N1688   1.157       .  T
C1680      N1686   1.158       .  T
C1689      C1690   1.412       .  A
C1689      C1694   1.414       .  A
C1689      C1707   1.449       .  S
C1690      C1691   1.411       .  A
C1690      C1695   1.499       .  S
C1691      C1692   1.410       .  A
C1691      C1696   1.450       .  S
C1692      C1693   1.411       .  A
C1692      C1708   1.451       .  S
C1693      C1694   1.412       .  A
C1694      C1697   1.450       .  S
C1695      C1698   1.412       .  A
C1695      C1702   1.411       .  A
C1696      N1713   1.157       .  T
C1697      N1715   1.157       .  T
C1698      C1699   1.411       .  A
C1698      C1703   1.451       .  S
C1699      C1700   1.413       .  A
C1699      C1705   1.451       .  S
C1700      C1701   1.414       .  A
C1701      C1702   1.413       .  A
C1701      C1704   1.450       .  S
C1702      C1706   1.450       .  S
C1703      N1710   1.157       .  T
C1704      N1711   1.157       .  T
C1705      N1709   1.157       .  T
C1706      N1712   1.157       .  T
C1707      N1716   1.157       .  T
C1708      N1714   1.157       .  T
C1717      C1718   1.411       .  A
C1717      C1722   1.408       .  A
C1717      C1735   1.451       .  S
C1718      C1719   1.410       .  A
C1718      C1723   1.492       .  S
C1719      C1720   1.410       .  A
C1719      C1724   1.450       .  S
C1720      C1721   1.414       .  A
C1720      C1736   1.451       .  S
C1721      C1722   1.412       .  A
C1722      C1725   1.451       .  S
C1723      C1726   1.410       .  A
C1723      C1730   1.410       .  A
C1724      N1741   1.157       .  T
C1725      N1743   1.157       .  T
C1726      C1727   1.409       .  A
C1726      C1731   1.451       .  S
C1727      C1728   1.414       .  A
C1727      C1733   1.451       .  S
C1728      C1729   1.414       .  A
C1729      C1730   1.411       .  A
C1729      C1732   1.451       .  S
C1730      C1734   1.450       .  S
C1731      N1738   1.157       .  T
C1732      N1739   1.157       .  T
C1733      N1737   1.157       .  T
C1734      N1740   1.157       .  T
C1735      N1744   1.157       .  T
C1736      N1742   1.157       .  T
