geometry optimzed in LAMMPS
_audit_creation_date              2020-11-30 
_audit_creation_method            'lammps2cif' 
_symmetry_space_group_name_H-M    'P1' 
_symmetry_Int_Tables_number       1 
_symmetry_cell_setting            triclinic 
loop_ 
_symmetry_equiv_pos_as_xyz 
  x,y,z 
_cell_length_a                    37.81334065874338 
_cell_length_b                    37.94139900784225 
_cell_length_c                    34.20454412672485 
_cell_angle_alpha                 89.90516175070141 
_cell_angle_beta                  89.94975744556567 
_cell_angle_gamma                 120.13659456268554 
loop_ 
_atom_site_label 
_atom_site_type_symbol 
_atom_site_fract_x 
_atom_site_fract_y 
_atom_site_fract_z 
_atom_site_charge 
C1          C  0.22163396  0.20232787  0.15678101     0.04540
C2          C  0.22039951  0.20153983  0.11573804    -0.11610
C3          C  0.24824195  0.23593664  0.09347270     0.02040
C4          C  0.27665281  0.27134121  0.11402474    -0.10140
C5          C  0.27997996  0.27142740  0.15480472     0.04530
C6          C  0.25238909  0.23665405  0.17579433    -0.09560
H7          H  0.19779953  0.17372342  0.10195746     0.10120
H8          H  0.29607344  0.29961269  0.09890300     0.07650
H9          H  0.25429702  0.23646941  0.20737562     0.07500
C10         C  0.21460370  0.20666599  0.48661923     0.04540
C11         C  0.21435145  0.20549480  0.02766484    -0.11610
C12         C  0.24777471  0.23575867  0.04935098     0.02040
C13         C  0.28176255  0.26596741  0.02815074    -0.10140
C14         C  0.28053681  0.26929161  0.48744435     0.04530
C15         C  0.24608737  0.24011825  0.46726545    -0.09560
H16         H  0.18832857  0.18052950  0.04184769     0.10120
H17         H  0.30992982  0.28672339  0.04273288     0.07650
H18         H  0.24410638  0.24246478  0.43586011     0.07500
C19         C  0.25235718  0.48503608  0.15538655     0.04540
C20         C  0.25237920  0.48417355  0.11443948    -0.11610
C21         C  0.21777536  0.47818004  0.09304420     0.02040
C22         C  0.18307123  0.47220368  0.11439880    -0.10140
C23         C  0.18395279  0.47592227  0.15522610     0.04530
C24         C  0.21912581  0.48284776  0.17537552    -0.09560
H25         H  0.27947098  0.48791769  0.10005147     0.10120
H26         H  0.15456443  0.46353482  0.09979914     0.07650
H27         H  0.22048030  0.48550237  0.20694493     0.07500
C28         C  0.24288529  0.46848348  0.48605698     0.04540
C29         C  0.24502424  0.47066273  0.02702996    -0.11610
C30         C  0.21688919  0.47695640  0.04901062     0.02040
C31         C  0.18746078  0.48221847  0.02829719    -0.10140
C32         C  0.18332010  0.47724982  0.48768257     0.04530
C33         C  0.21102226  0.47001793  0.46700299    -0.09560
H34         H  0.26841052  0.46679248  0.04104233     0.10120
H35         H  0.16780154  0.49083871  0.04324917     0.07650
H36         H  0.20835572  0.46629248  0.43556817     0.07500
C37         C  0.97727953  0.23487988  0.15570992     0.04540
C38         C  0.98123855  0.23729850  0.11476976    -0.11610
C39         C  0.98233144  0.20603403  0.09297133     0.02040
C40         C  0.98093506  0.17320685  0.11435016    -0.10140
C41         C  0.97883669  0.17155956  0.15525297     0.04530
C42         C  0.97599227  0.20200519  0.17545818    -0.09560
H43         H  0.98266207  0.26342856  0.10075394     0.10120
H44         H  0.98157286  0.14831491  0.10007880     0.07650
H45         H  0.97316523  0.20039393  0.20704050     0.07500
C46         C  0.47520179  0.23221927  0.48506522     0.04540
C47         C  0.47791823  0.23494888  0.02610110    -0.11610
C48         C  0.48302719  0.20623388  0.04857832     0.02040
C49         C  0.48836452  0.17691627  0.02775671    -0.10140
C50         C  0.48251735  0.17206042  0.48727883     0.04530
C51         C  0.47399898  0.19878096  0.46667970    -0.09560
H52         H  0.47686618  0.26004677  0.03954505     0.10120
H53         H  0.49797997  0.15790631  0.04214036     0.07650
H54         H  0.46830983  0.19484181  0.43550944     0.07500
O55         O  0.39220623  0.50978617  0.27941275    -0.86770
C56         C  0.10046681  0.08733768  0.37859367     1.13270
O57         O  0.43859956  0.47263142  0.32096071    -1.34580
O58         O  0.07429531  0.09468387  0.27679796    -0.88260
O59         O  0.35841385  0.44202748  0.27509477    -0.88920
O60         O  0.43814232  0.42986927  0.23764774    -0.77740
O61         O  0.48287711  0.05245521  0.28531841    -0.99830
C62         C  0.05411126  0.47016090  0.24966151     1.23310
O63         O  0.47914766  0.42835131  0.32074219    -1.34730
Mn64       Mn  0.47997797  0.47086209  0.36376522     1.82050
O65         O  0.02355049  0.47191937  0.23814222    -0.76820
O66         O  0.10680597  0.05917290  0.27884526    -0.86220
C67         C  0.05337607  0.46941327  0.39254460     1.14400
C68         C  0.10193803  0.08740883  0.26490327     1.09120
O69         O  0.43607122  0.42880771  0.40339750    -0.77760
O70         O  0.02362344  0.01315766  0.32131023    -1.31450
O71         O  0.39923112  0.39300953  0.35658762    -0.96970
C72         C  0.47653825  0.35155488  0.26349649     1.07840
Mn73       Mn  0.08038346  0.01464065  0.32166153     1.48570
O74         O  0.44303025  0.34586106  0.27774507    -0.86170
Mn75       Mn  0.38035406  0.41952230  0.31951390     1.49560
O76         O  0.39220649  0.50744282  0.36716615    -0.90040
C77         C  0.48231982  0.04697793  0.25024261     1.21030
C78         C  0.36239459  0.47286834  0.37746561     1.13090
Mn79       Mn  0.48074272  0.47185951  0.27824931     1.80970
O80         O  0.05826764  0.46859011  0.35751984    -0.95200
Mn81       Mn  0.43702818  0.02771604  0.32251234     1.49260
C82         C  0.36495130  0.47685787  0.26394216     1.09610
Mn83       Mn  0.03236611  0.42330261  0.32035111     1.49930
C84         C  0.47717041  0.35122151  0.37728198     1.12510
O85         O  0.40050065  0.39354677  0.28389592    -1.01000
O86         O  0.10552381  0.05886432  0.36557195    -0.90660
C87         C  0.40595220  0.39890822  0.24889597     1.23790
O88         O  0.05882150  0.46945884  0.28470619    -1.01390
O89         O  0.07378011  0.09500562  0.36510385    -0.88780
O90         O  0.01129519  0.37807832  0.36318465    -0.88390
O91         O  0.35556277  0.43960897  0.36214277    -0.88420
Mn92       Mn  0.02920717  0.07152309  0.32118970     1.47860
O93         O  0.02164855  0.46902762  0.40394886    -0.76890
C94         C  0.40447679  0.39763719  0.39166599     1.16850
O95         O  0.48113744  0.01503088  0.23868805    -0.75620
O96         O  0.48128090  0.01369947  0.40432101    -0.75230
Mn97       Mn  0.42400541  0.37154869  0.32091912     1.51060
O98         O  0.01125287  0.37932421  0.27565289    -0.87590
O99         O  0.48359811  0.05155346  0.35804710    -0.95120
O100        O  0.44307237  0.34630130  0.36552090    -0.90130
C101        C  0.48385227  0.04636310  0.39305106     1.14630
C102        C  0.46992063  0.10003044  0.48042462     0.25000
C103        C  0.48664267  0.14013617  0.46576572    -0.23100
C104        C  0.50614260  0.14938684  0.42907805     0.19910
C105        C  0.50527971  0.11887370  0.40598976     0.24950
C106        C  0.48725182  0.07849496  0.41984258    -0.23050
C107        C  0.47122155  0.06971993  0.45798744     0.19850
F108        F  0.45434113  0.03129897  0.47255162    -0.13010
F109        F  0.45041158  0.08950291  0.01548357    -0.15370
F110        F  0.02266333  0.12922411  0.36993193    -0.15370
F111        F  0.02621635  0.18819670  0.41522679    -0.13010
C112        C  0.45072826  0.28109044  0.46588923     0.25000
C113        C  0.47700295  0.26531005  0.46007994    -0.23100
C114        C  0.50465748  0.28007235  0.42843467     0.19910
C115        C  0.50476759  0.30826414  0.40221385     0.24950
C116        C  0.47763971  0.32304809  0.40706187    -0.23050
C117        C  0.45102559  0.30973467  0.43951180     0.19850
F118        F  0.42575168  0.32479523  0.44597643    -0.13010
F119        F  0.42392449  0.26787069  0.99623482    -0.15370
F120        F  0.53047957  0.31987905  0.37099668    -0.15370
F121        F  0.53168766  0.26693491  0.42261938    -0.13010
C122        C  0.45918315  0.06730637  0.18956922     0.25000
C123        C  0.48349171  0.07809983  0.22338144    -0.23100
C124        C  0.00694127  0.11949926  0.23359087     0.19910
C125        C  0.00676952  0.14951541  0.21032321     0.24950
C126        C  0.48111301  0.13895560  0.17747696    -0.23050
C127        C  0.45741640  0.09744357  0.16713233     0.19850
F128        F  0.43114796  0.08583244  0.13649651    -0.13010
F129        F  0.43517485  0.02751544  0.17971377    -0.15370
F130        F  0.03194073  0.18916943  0.22008530    -0.15370
F131        F  0.03022847  0.13120881  0.26638083    -0.13010
C132        C  0.00603961  0.30733367  0.17793669     0.25000
C133        C  0.47452016  0.26640658  0.17894838    -0.23100
C134        C  0.44213227  0.25465211  0.20556953     0.19910
C135        C  0.44216710  0.28269435  0.23198451     0.24950
C136        C  0.47474135  0.32329106  0.23250115    -0.23050
C137        C  0.00614161  0.33552949  0.20447135     0.19850
F138        F  0.03711712  0.37468816  0.20284957    -0.13010
F139        F  0.03783005  0.31955228  0.15267947    -0.15370
F140        F  0.41128396  0.26936971  0.25847731    -0.15370
F141        F  0.41089464  0.21545262  0.20678310    -0.13010
C142        C  0.29168728  0.43891296  0.40568033     0.25000
C143        C  0.33288714  0.47042729  0.40759289    -0.23100
C144        C  0.34468523  0.49932748  0.43776439     0.19910
C145        C  0.31589926  0.49710321  0.46503880     0.24950
C146        C  0.27457959  0.46643456  0.46212450    -0.23050
C147        C  0.26295831  0.43703679  0.43253630     0.19850
F148        F  0.22334008  0.40699460  0.42893123    -0.13010
F149        F  0.27852575  0.41097143  0.37645821    -0.15370
F150        F  0.32798481  0.02628328  0.99296988    -0.15370
F151        F  0.38388142  0.03014330  0.44052739    -0.13010
C152        C  0.15860643  0.49897837  0.42974855     0.25000
C153        C  0.15016062  0.47935318  0.46625894    -0.23100
C154        C  0.10940900  0.45903137  0.48008948     0.19910
C155        C  0.07779832  0.45720961  0.45704385     0.24950
C156        C  0.08620626  0.47412751  0.41927421    -0.23050
C157        C  0.12703272  0.49494287  0.40597336     0.19850
F158        F  0.13674918  0.01097766  0.36940076    -0.13010
F159        F  0.19763292  0.02171729  0.41652553    -0.15370
F160        F  0.03877316  0.43665936  0.47060347    -0.15370
F161        F  0.09975077  0.43907935  0.01489868    -0.13010
C162        C  0.28013824  0.44607196  0.18874928     0.25000
C163        C  0.28483141  0.48388431  0.17818617    -0.23100
C164        C  0.31743781  0.01960959  0.19353697     0.19910
C165        C  0.34449932  0.01755429  0.22014521     0.24950
C166        C  0.33899329  0.47940508  0.23236756    -0.23100
C167        C  0.30679729  0.44373880  0.21551395     0.19850
F168        F  0.29976334  0.40628387  0.22592298    -0.13010
F169        F  0.24835140  0.41111722  0.17445921    -0.15370
F170        F  0.37512478  0.05302099  0.23484432    -0.15370
F171        F  0.32211899  0.05643492  0.18386354    -0.13010
C172        C  0.10541541  0.44906490  0.23549851     0.25000
C173        C  0.08420897  0.46876561  0.22301829    -0.23100
C174        C  0.09428370  0.48891033  0.18673690     0.19910
C175        C  0.12629647  0.49086580  0.16423616     0.24950
C176        C  0.14791842  0.47161501  0.17716779    -0.23050
C177        C  0.13594761  0.44948804  0.21241134     0.19850
F178        F  0.15368120  0.42792709  0.22467197    -0.13010
F179        F  0.09635225  0.42880645  0.27014807    -0.15370
F180        F  0.13733826  0.51322056  0.13078903    -0.15370
F181        F  0.07486184  0.50871269  0.17414033    -0.13010
C182        C  0.33604521  0.34304647  0.47868131     0.25000
C183        C  0.31537950  0.30233583  0.46530709    -0.23100
C184        C  0.32662837  0.29355081  0.42898524     0.19910
C185        C  0.35475982  0.32471136  0.40514257     0.24950
C186        C  0.37523774  0.36537452  0.41818615    -0.23050
C187        C  0.36639551  0.37419200  0.45558453     0.19850
F188        F  0.38536968  0.41315627  0.46882135    -0.13010
F189        F  0.32569519  0.35309466  0.01319399    -0.15370
F190        F  0.36202752  0.31470143  0.36912467    -0.15370
F191        F  0.31040006  0.25456797  0.41624923    -0.13010
C192        C  0.17012605  0.12657507  0.40756810     0.25000
C193        C  0.12834131  0.11403485  0.40952273    -0.23100
C194        C  0.11438128  0.12925617  0.43971215     0.19910
C195        C  0.14200654  0.15811793  0.46618511     0.24950
C196        C  0.18402362  0.17224413  0.46273865    -0.23050
C197        C  0.19763411  0.15534790  0.43384871     0.19850
F198        F  0.23797433  0.16756036  0.43044517    -0.13010
F199        F  0.18477897  0.11271595  0.37879802    -0.15370
F200        F  0.12794842  0.17359254  0.99394036    -0.15370
F201        F  0.07403546  0.11619986  0.44364500    -0.13010
C202        C  0.30233368  0.31994788  0.21115857     0.25000
C203        C  0.31211150  0.30766964  0.17598479    -0.23100
C204        C  0.35318063  0.32837626  0.16307303     0.19910
C205        C  0.38380805  0.35970904  0.18565530     0.24950
C206        C  0.37405593  0.36983067  0.22201898    -0.23050
C207        C  0.33296968  0.34953442  0.23442826     0.19850
F208        F  0.32219082  0.35800490  0.26955067    -0.13010
F209        F  0.26293551  0.30299334  0.22343210    -0.15370
F210        F  0.42323178  0.37813622  0.17323547    -0.15370
F211        F  0.36410488  0.31687209  0.12973914    -0.13010
C212        C  0.11921408  0.12831875  0.20259518     0.25000
C213        C  0.13144515  0.11389797  0.23475447    -0.23100
C214        C  0.17296978  0.12556900  0.23863889     0.19910
C215        C  0.20190929  0.15245652  0.21193315     0.24950
C216        C  0.19007211  0.16838664  0.18071493    -0.23050
C217        C  0.14829643  0.15530550  0.17571145     0.19850
F218        F  0.13588469  0.17026385  0.14597369    -0.13010
F219        F  0.07920183  0.11629990  0.19717097    -0.15370
F220        F  0.24183833  0.16384340  0.21721362    -0.15370
F221        F  0.18597158  0.11255769  0.26954105    -0.13010
C222        C  0.22163398  0.20232787  0.65678102     0.04540
C223        C  0.22039953  0.20153981  0.61573805    -0.11610
C224        C  0.24824196  0.23593662  0.59347270     0.02040
C225        C  0.27665283  0.27134120  0.61402474    -0.10140
C226        C  0.27997998  0.27142739  0.65480472     0.04530
C227        C  0.25238911  0.23665405  0.67579433    -0.09560
H228        H  0.19779955  0.17372340  0.60195747     0.10120
H229        H  0.29607346  0.29961267  0.59890300     0.07650
H230        H  0.25429703  0.23646941  0.70737562     0.07500
C231        C  0.21460368  0.20666600  0.98661922     0.04540
C232        C  0.21435147  0.20549478  0.52766484    -0.11610
C233        C  0.24777473  0.23575864  0.54935098     0.02040
C234        C  0.28176257  0.26596739  0.52815075    -0.10140
C235        C  0.28053679  0.26929163  0.98744435     0.04530
C236        C  0.24608735  0.24011827  0.96726545    -0.09560
H237        H  0.18832859  0.18052948  0.54184769     0.10120
H238        H  0.30992984  0.28672336  0.54273288     0.07650
H239        H  0.24410637  0.24246479  0.93586011     0.07500
C240        C  0.25235719  0.48503610  0.65538655     0.04540
C241        C  0.25237921  0.48417357  0.61443948    -0.11610
C242        C  0.21777537  0.47818007  0.59304420     0.02040
C243        C  0.18307124  0.47220370  0.61439880    -0.10140
C244        C  0.18395280  0.47592229  0.65522610     0.04530
C245        C  0.21912582  0.48284777  0.67537552    -0.09560
H246        H  0.27947099  0.48791771  0.60005147     0.10120
H247        H  0.15456444  0.46353484  0.59979914     0.07650
H248        H  0.22048030  0.48550237  0.70694493     0.07500
C249        C  0.24288528  0.46848346  0.98605697     0.04540
C250        C  0.24502425  0.47066275  0.52702997    -0.11610
C251        C  0.21688920  0.47695642  0.54901062     0.02040
C252        C  0.18746079  0.48221849  0.52829719    -0.10140
C253        C  0.18332009  0.47724980  0.98768257     0.04530
C254        C  0.21102226  0.47001792  0.96700299    -0.09560
H255        H  0.26841053  0.46679250  0.54104233     0.10120
H256        H  0.16780155  0.49083874  0.54324917     0.07650
H257        H  0.20835572  0.46629248  0.93556817     0.07500
C258        C  0.97727953  0.23487988  0.65570992     0.04540
C259        C  0.98123855  0.23729849  0.61476976    -0.11610
C260        C  0.98233144  0.20603403  0.59297133     0.02040
C261        C  0.98093506  0.17320684  0.61435016    -0.10140
C262        C  0.97883669  0.17155956  0.65525297     0.04530
C263        C  0.97599227  0.20200518  0.67545818    -0.09560
H264        H  0.98266207  0.26342855  0.60075394     0.10120
H265        H  0.98157286  0.14831491  0.60007880     0.07650
H266        H  0.97316523  0.20039393  0.70704050     0.07500
C267        C  0.47520179  0.23221927  0.98506522     0.04540
C268        C  0.47791824  0.23494889  0.52610110    -0.11610
C269        C  0.48302720  0.20623389  0.54857832     0.02040
C270        C  0.48836451  0.17691627  0.52775670    -0.10140
C271        C  0.48251736  0.17206042  0.98727883     0.04530
C272        C  0.47399899  0.19878097  0.96667969    -0.09560
H273        H  0.47686620  0.26004679  0.53954505     0.10120
H274        H  0.49797996  0.15790631  0.54214036     0.07650
H275        H  0.46830986  0.19484183  0.93550944     0.07500
O276        O  0.39220623  0.50978617  0.77941275    -0.86770
C277        C  0.10046680  0.08733768  0.87859368     1.13270
O278        O  0.43859956  0.47263142  0.82096071    -1.34580
O279        O  0.07429531  0.09468387  0.77679795    -0.88260
O280        O  0.35841386  0.44202748  0.77509476    -0.88920
O281        O  0.43814232  0.42986927  0.73764774    -0.77740
O282        O  0.48287711  0.05245521  0.78531841    -0.99830
C283        C  0.05411126  0.47016090  0.74966151     1.23310
O284        O  0.47914767  0.42835131  0.82074219    -1.34730
Mn285      Mn  0.47997798  0.47086209  0.86376521     1.82050
O286        O  0.02355049  0.47191937  0.73814222    -0.76820
O287        O  0.10680597  0.05917290  0.77884526    -0.86220
C288        C  0.05337608  0.46941327  0.89254460     1.14400
C289        C  0.10193803  0.08740883  0.76490328     1.09120
O290        O  0.43607123  0.42880772  0.90339749    -0.77760
O291        O  0.02362344  0.01315766  0.82131023    -1.31450
O292        O  0.39923113  0.39300953  0.85658762    -0.96970
C293        C  0.47653826  0.35155489  0.76349649     1.07840
Mn294      Mn  0.08038347  0.01464065  0.82166153     1.48570
O295        O  0.44303026  0.34586107  0.77774507    -0.86170
Mn296      Mn  0.38035407  0.41952230  0.81951389     1.49560
O297        O  0.39220649  0.50744282  0.86716615    -0.90040
C298        C  0.48231983  0.04697793  0.75024261     1.21030
C299        C  0.36239459  0.47286834  0.87746561     1.13090
Mn300      Mn  0.48074273  0.47185952  0.77824931     1.80970
O301        O  0.05826764  0.46859011  0.85751984    -0.95200
Mn302      Mn  0.43702817  0.02771604  0.82251234     1.49260
C303        C  0.36495131  0.47685787  0.76394216     1.09610
Mn304      Mn  0.03236612  0.42330261  0.82035111     1.49930
C305        C  0.47717041  0.35122152  0.87728198     1.12510
O306        O  0.40050066  0.39354677  0.78389592    -1.01000
O307        O  0.10552381  0.05886432  0.86557196    -0.90660
C308        C  0.40595221  0.39890822  0.74889596     1.23790
O309        O  0.05882151  0.46945885  0.78470619    -1.01390
O310        O  0.07378011  0.09500562  0.86510385    -0.88780
O311        O  0.01129519  0.37807832  0.86318465    -0.88390
O312        O  0.35556278  0.43960897  0.86214277    -0.88420
Mn313      Mn  0.02920717  0.07152309  0.82118970     1.47860
O314        O  0.02164855  0.46902762  0.90394886    -0.76890
C315        C  0.40447679  0.39763720  0.89166599     1.16850
O316        O  0.48113744  0.01503088  0.73868805    -0.75620
O317        O  0.48128090  0.01369947  0.90432101    -0.75230
Mn318      Mn  0.42400542  0.37154869  0.82091912     1.51060
O319        O  0.01125287  0.37932421  0.77565289    -0.87590
O320        O  0.48359810  0.05155346  0.85804710    -0.95120
O321        O  0.44307238  0.34630130  0.86552090    -0.90130
C322        C  0.48385226  0.04636310  0.89305106     1.14630
C323        C  0.46992065  0.10003044  0.98042462     0.25000
C324        C  0.48664268  0.14013618  0.96576572    -0.23100
C325        C  0.50614261  0.14938685  0.92907805     0.19910
C326        C  0.50527972  0.11887370  0.90598976     0.24950
C327        C  0.48725182  0.07849496  0.91984258    -0.23050
C328        C  0.47122155  0.06971993  0.95798744     0.19850
F329        F  0.45434114  0.03129898  0.97255162    -0.13010
F330        F  0.45041157  0.08950290  0.51548356    -0.15370
F331        F  0.02266333  0.12922411  0.86993192    -0.15370
F332        F  0.02621635  0.18819670  0.91522679    -0.13010
C333        C  0.45072825  0.28109043  0.96588922     0.25000
C334        C  0.47700295  0.26531005  0.96007994    -0.23100
C335        C  0.50465750  0.28007237  0.92843468     0.19910
C336        C  0.50476761  0.30826416  0.90221387     0.24950
C337        C  0.47763972  0.32304809  0.90706187    -0.23050
C338        C  0.45102558  0.30973466  0.93951179     0.19850
F339        F  0.42575165  0.32479521  0.94597641    -0.13010
F340        F  0.42392452  0.26787072  0.49623484    -0.15370
F341        F  0.53047961  0.31987909  0.87099671    -0.15370
F342        F  0.53168769  0.26693494  0.92261941    -0.13010
C343        C  0.45918318  0.06730638  0.68956921     0.25000
C344        C  0.48349172  0.07809983  0.72338144    -0.23100
C345        C  0.00694127  0.11949925  0.73359087     0.19910
C346        C  0.00676952  0.14951540  0.71032322     0.24950
C347        C  0.48111303  0.13895561  0.67747696    -0.23050
C348        C  0.45741643  0.09744358  0.66713232     0.19850
F349        F  0.43114800  0.08583245  0.63649649    -0.13010
F350        F  0.43517488  0.02751545  0.67971375    -0.15370
F351        F  0.03194073  0.18916943  0.72008530    -0.15370
F352        F  0.03022847  0.13120881  0.76638084    -0.13010
C353        C  0.00603962  0.30733367  0.67793670     0.25000
C354        C  0.47452017  0.26640659  0.67894838    -0.23100
C355        C  0.44213228  0.25465211  0.70556953     0.19910
C356        C  0.44216711  0.28269435  0.73198451     0.24950
C357        C  0.47474136  0.32329106  0.73250115    -0.23050
C358        C  0.00614161  0.33552949  0.70447135     0.19850
F359        F  0.03711713  0.37468815  0.70284958    -0.13010
F360        F  0.03783006  0.31955228  0.65267948    -0.15370
F361        F  0.41128397  0.26936972  0.75847731    -0.15370
F362        F  0.41089465  0.21545263  0.70678310    -0.13010
C363        C  0.29168727  0.43891296  0.90568031     0.25000
C364        C  0.33288714  0.47042728  0.90759289    -0.23100
C365        C  0.34468523  0.49932747  0.93776440     0.19910
C366        C  0.31589925  0.49710320  0.96503881     0.24950
C367        C  0.27457958  0.46643454  0.96212449    -0.23050
C368        C  0.26295831  0.43703679  0.93253629     0.19850
F369        F  0.22334007  0.40699460  0.92893121    -0.13010
F370        F  0.27852574  0.41097144  0.87645819    -0.15370
F371        F  0.32798481  0.02628330  0.49296987    -0.15370
F372        F  0.38388143  0.03014328  0.94052741    -0.13010
C373        C  0.15860643  0.49897837  0.92974855     0.25000
C374        C  0.15016061  0.47935317  0.96625894    -0.23100
C375        C  0.10940899  0.45903135  0.98008948     0.19910
C376        C  0.07779831  0.45720960  0.95704384     0.24950
C377        C  0.08620626  0.47412750  0.91927421    -0.23050
C378        C  0.12703272  0.49494287  0.90597336     0.19850
F379        F  0.13674918  0.01097767  0.86940077    -0.13010
F380        F  0.19763293  0.02171730  0.91652554    -0.15370
F381        F  0.03877315  0.43665935  0.97060346    -0.15370
F382        F  0.09975077  0.43907938  0.51489869    -0.13010
C383        C  0.28013821  0.44607195  0.68874932     0.25000
C384        C  0.28483141  0.48388431  0.67818617    -0.23100
C385        C  0.31743784  0.01960958  0.69353693     0.19910
C386        C  0.34449934  0.01755428  0.72014517     0.24950
C387        C  0.33899329  0.47940508  0.73236756    -0.23100
C388        C  0.30679725  0.44373879  0.71551399     0.19850
F389        F  0.29976327  0.40628386  0.72592306    -0.13010
F390        F  0.24835133  0.41111722  0.67445929    -0.15370
F391        F  0.37512483  0.05302098  0.73484425    -0.15370
F392        F  0.32211904  0.05643492  0.68386347    -0.13010
C393        C  0.10541542  0.44906491  0.73549851     0.25000
C394        C  0.08420898  0.46876562  0.72301829    -0.23100
C395        C  0.09428371  0.48891034  0.68673690     0.19910
C396        C  0.12629648  0.49086581  0.66423616     0.24950
C397        C  0.14791843  0.47161502  0.67716779    -0.23050
C398        C  0.13594761  0.44948804  0.71241134     0.19850
F399        F  0.15368120  0.42792710  0.72467197    -0.13010
F400        F  0.09635225  0.42880645  0.77014807    -0.15370
F401        F  0.13733827  0.51322057  0.63078903    -0.15370
F402        F  0.07486185  0.50871269  0.67414033    -0.13010
C403        C  0.33604519  0.34304649  0.97868130     0.25000
C404        C  0.31537948  0.30233585  0.96530709    -0.23100
C405        C  0.32662836  0.29355082  0.92898524     0.19910
C406        C  0.35475982  0.32471137  0.90514257     0.24950
C407        C  0.37523774  0.36537452  0.91818615    -0.23050
C408        C  0.36639550  0.37419202  0.95558452     0.19850
F409        F  0.38536967  0.41315629  0.96882134    -0.13010
F410        F  0.32569521  0.35309464  0.51319400    -0.15370
F411        F  0.36202752  0.31470143  0.86912468    -0.15370
F412        F  0.31040005  0.25456798  0.91624925    -0.13010
C413        C  0.17012605  0.12657509  0.90756810     0.25000
C414        C  0.12834131  0.11403485  0.90952274    -0.23100
C415        C  0.11438127  0.12925617  0.93971215     0.19910
C416        C  0.14200653  0.15811793  0.96618510     0.24950
C417        C  0.18402361  0.17224414  0.96273864    -0.23050
C418        C  0.19763410  0.15534792  0.93384870     0.19850
F419        F  0.23797433  0.16756039  0.93044516    -0.13010
F420        F  0.18477897  0.11271596  0.87879801    -0.15370
F421        F  0.12794844  0.17359254  0.49394036    -0.15370
F422        F  0.07403545  0.11619985  0.94364501    -0.13010
C423        C  0.30233369  0.31994788  0.71115856     0.25000
C424        C  0.31211151  0.30766964  0.67598479    -0.23100
C425        C  0.35318064  0.32837625  0.66307303     0.19910
C426        C  0.38380806  0.35970903  0.68565531     0.24950
C427        C  0.37405594  0.36983067  0.72201898    -0.23050
C428        C  0.33296969  0.34953443  0.73442825     0.19850
F429        F  0.32219082  0.35800491  0.76955065    -0.13010
F430        F  0.26293552  0.30299335  0.72343209    -0.15370
F431        F  0.42323179  0.37813621  0.67323548    -0.15370
F432        F  0.36410490  0.31687207  0.62973915    -0.13010
C433        C  0.11921409  0.12831875  0.70259518     0.25000
C434        C  0.13144516  0.11389797  0.73475448    -0.23100
C435        C  0.17296978  0.12556900  0.73863890     0.19910
C436        C  0.20190929  0.15245652  0.71193316     0.24950
C437        C  0.19007212  0.16838663  0.68071494    -0.23050
C438        C  0.14829644  0.15530550  0.67571145     0.19850
F439        F  0.13588471  0.17026385  0.64597369    -0.13010
F440        F  0.07920184  0.11629989  0.69717096    -0.15370
F441        F  0.24183833  0.16384341  0.71721364    -0.15370
F442        F  0.18597158  0.11255769  0.76954107    -0.13010
C443        C  0.22163396  0.70232788  0.15678102     0.04540
C444        C  0.22039951  0.70153983  0.11573805    -0.11610
C445        C  0.24824194  0.73593664  0.09347270     0.02040
C446        C  0.27665281  0.77134121  0.11402475    -0.10140
C447        C  0.27997996  0.77142740  0.15480472     0.04530
C448        C  0.25238909  0.73665406  0.17579433    -0.09560
H449        H  0.19779953  0.67372342  0.10195746     0.10120
H450        H  0.29607344  0.79961269  0.09890300     0.07650
H451        H  0.25429702  0.73646941  0.20737562     0.07500
C452        C  0.21460369  0.70666600  0.48661922     0.04540
C453        C  0.21435145  0.70549480  0.02766484    -0.11610
C454        C  0.24777471  0.73575867  0.04935098     0.02040
C455        C  0.28176255  0.76596741  0.02815075    -0.10140
C456        C  0.28053680  0.76929162  0.48744435     0.04530
C457        C  0.24608736  0.74011826  0.46726545    -0.09560
H458        H  0.18832857  0.68052950  0.04184769     0.10120
H459        H  0.30992982  0.78672338  0.04273288     0.07650
H460        H  0.24410637  0.74246479  0.43586011     0.07500
C461        C  0.25235719  0.98503610  0.15538655     0.04540
C462        C  0.25237921  0.98417357  0.11443948    -0.11610
C463        C  0.21777537  0.97818006  0.09304420     0.02040
C464        C  0.18307124  0.97220370  0.11439880    -0.10140
C465        C  0.18395280  0.97592229  0.15522610     0.04530
C466        C  0.21912582  0.98284777  0.17537552    -0.09560
H467        H  0.27947099  0.98791771  0.10005147     0.10120
H468        H  0.15456444  0.96353484  0.09979914     0.07650
H469        H  0.22048030  0.98550237  0.20694493     0.07500
C470        C  0.24288529  0.96848348  0.48605698     0.04540
C471        C  0.24502425  0.97066275  0.02702997    -0.11610
C472        C  0.21688920  0.97695642  0.04901063     0.02040
C473        C  0.18746079  0.98221848  0.02829719    -0.10140
C474        C  0.18332010  0.97724981  0.48768257     0.04530
C475        C  0.21102226  0.97001793  0.46700299    -0.09560
H476        H  0.26841053  0.96679250  0.04104233     0.10120
H477        H  0.16780155  0.99083873  0.04324917     0.07650
H478        H  0.20835572  0.96629247  0.43556817     0.07500
C479        C  0.97727951  0.73487987  0.15570992     0.04540
C480        C  0.98123853  0.73729849  0.11476976    -0.11610
C481        C  0.98233142  0.70603402  0.09297133     0.02040
C482        C  0.98093504  0.67320683  0.11435016    -0.10140
C483        C  0.97883666  0.67155955  0.15525297     0.04530
C484        C  0.97599224  0.70200517  0.17545818    -0.09560
H485        H  0.98266205  0.76342855  0.10075394     0.10120
H486        H  0.98157283  0.64831490  0.10007880     0.07650
H487        H  0.97316521  0.70039392  0.20704050     0.07500
C488        C  0.47520178  0.73221927  0.48506522     0.04540
C489        C  0.47791821  0.73494887  0.02610110    -0.11610
C490        C  0.48302718  0.70623387  0.04857833     0.02040
C491        C  0.48836450  0.67691627  0.02775671    -0.10140
C492        C  0.48251735  0.67206042  0.48727883     0.04530
C493        C  0.47399898  0.69878097  0.46667969    -0.09560
H494        H  0.47686616  0.76004677  0.03954505     0.10120
H495        H  0.49797995  0.65790631  0.04214036     0.07650
H496        H  0.46830984  0.69484182  0.43550944     0.07500
O497        O  0.39220623  0.00978617  0.27941275    -0.86770
C498        C  0.10046680  0.58733768  0.37859367     1.13270
O499        O  0.43859956  0.97263142  0.32096071    -1.34580
O500        O  0.07429530  0.59468387  0.27679796    -0.88260
O501        O  0.35841386  0.94202748  0.27509477    -0.88920
O502        O  0.43814232  0.92986927  0.23764774    -0.77740
O503        O  0.48287711  0.55245521  0.28531841    -0.99830
C504        C  0.05411125  0.97016090  0.24966151     1.23310
O505        O  0.47914766  0.92835131  0.32074219    -1.34730
Mn506      Mn  0.47997798  0.97086209  0.36376521     1.82050
O507        O  0.02355049  0.97191937  0.23814222    -0.76820
O508        O  0.10680596  0.55917290  0.27884526    -0.86220
C509        C  0.05337607  0.96941326  0.39254460     1.14400
C510        C  0.10193802  0.58740884  0.26490328     1.09120
O511        O  0.43607123  0.92880772  0.40339749    -0.77760
O512        O  0.02362343  0.51315766  0.32131023    -1.31450
O513        O  0.39923112  0.89300953  0.35658762    -0.96970
C514        C  0.47653825  0.85155488  0.26349649     1.07840
Mn515      Mn  0.08038346  0.51464066  0.32166153     1.48570
O516        O  0.44303025  0.84586106  0.27774507    -0.86170
Mn517      Mn  0.38035406  0.91952231  0.31951389     1.49560
O518        O  0.39220650  0.00744282  0.36716615    -0.90040
C519        C  0.48231982  0.54697793  0.25024261     1.21030
C520        C  0.36239459  0.97286835  0.37746561     1.13090
Mn521      Mn  0.48074273  0.97185952  0.27824931     1.80970
O522        O  0.05826764  0.96859011  0.35751983    -0.95200
Mn523      Mn  0.43702817  0.52771603  0.32251234     1.49260
C524        C  0.36495131  0.97685788  0.26394216     1.09610
Mn525      Mn  0.03236611  0.92330260  0.32035111     1.49930
C526        C  0.47717041  0.85122151  0.37728198     1.12510
O527        O  0.40050065  0.89354677  0.28389592    -1.01000
O528        O  0.10552381  0.55886432  0.36557195    -0.90660
C529        C  0.40595220  0.89890822  0.24889596     1.23790
O530        O  0.05882150  0.96945884  0.28470619    -1.01390
O531        O  0.07378010  0.59500562  0.36510385    -0.88780
O532        O  0.01129518  0.87807832  0.36318464    -0.88390
O533        O  0.35556278  0.93960898  0.36214277    -0.88420
Mn534      Mn  0.02920716  0.57152309  0.32118970     1.47860
O535        O  0.02164855  0.96902762  0.40394886    -0.76890
C536        C  0.40447679  0.89763720  0.39166599     1.16850
O537        O  0.48113743  0.51503087  0.23868805    -0.75620
O538        O  0.48128089  0.51369946  0.40432101    -0.75230
Mn539      Mn  0.42400541  0.87154869  0.32091912     1.51060
O540        O  0.01125286  0.87932420  0.27565289    -0.87590
O541        O  0.48359810  0.55155346  0.35804710    -0.95120
O542        O  0.44307237  0.84630130  0.36552090    -0.90130
C543        C  0.48385226  0.54636310  0.39305106     1.14630
C544        C  0.46992064  0.60003044  0.48042462     0.25000
C545        C  0.48664267  0.64013617  0.46576572    -0.23100
C546        C  0.50614260  0.64938684  0.42907805     0.19910
C547        C  0.50527970  0.61887370  0.40598975     0.24950
C548        C  0.48725182  0.57849496  0.41984258    -0.23050
C549        C  0.47122155  0.56971993  0.45798744     0.19850
F550        F  0.45434114  0.53129897  0.47255162    -0.13010
F551        F  0.45041157  0.58950290  0.01548357    -0.15370
F552        F  0.02266332  0.62922410  0.36993192    -0.15370
F553        F  0.02621634  0.68819670  0.41522678    -0.13010
C554        C  0.45072825  0.78109043  0.46588923     0.25000
C555        C  0.47700295  0.76531005  0.46007994    -0.23100
C556        C  0.50465748  0.78007236  0.42843467     0.19910
C557        C  0.50476760  0.80826415  0.40221386     0.24950
C558        C  0.47763971  0.82304809  0.40706187    -0.23050
C559        C  0.45102558  0.80973466  0.43951179     0.19850
F560        F  0.42575166  0.82479522  0.44597642    -0.13010
F561        F  0.42392449  0.76787069  0.99623483    -0.15370
F562        F  0.53047958  0.81987906  0.37099669    -0.15370
F563        F  0.53168767  0.76693492  0.42261940    -0.13010
C564        C  0.45918314  0.56730636  0.18956922     0.25000
C565        C  0.48349170  0.57809982  0.22338144    -0.23100
C566        C  0.00694125  0.61949925  0.23359087     0.19910
C567        C  0.00676950  0.64951540  0.21032322     0.24950
C568        C  0.48111299  0.63895559  0.17747696    -0.23050
C569        C  0.45741639  0.59744356  0.16713233     0.19850
F570        F  0.43114795  0.58583243  0.13649651    -0.13010
F571        F  0.43517484  0.52751543  0.17971377    -0.15370
F572        F  0.03194071  0.68916942  0.22008530    -0.15370
F573        F  0.03022846  0.63120881  0.26638083    -0.13010
C574        C  0.00603960  0.80733366  0.17793669     0.25000
C575        C  0.47452015  0.76640658  0.17894838    -0.23100
C576        C  0.44213226  0.75465210  0.20556953     0.19910
C577        C  0.44216710  0.78269435  0.23198451     0.24950
C578        C  0.47474135  0.82329106  0.23250115    -0.23050
C579        C  0.00614160  0.83552948  0.20447135     0.19850
F580        F  0.03711711  0.87468815  0.20284957    -0.13010
F581        F  0.03783004  0.81955227  0.15267947    -0.15370
F582        F  0.41128396  0.76936971  0.25847731    -0.15370
F583        F  0.41089463  0.71545262  0.20678310    -0.13010
C584        C  0.29168729  0.93891296  0.40568033     0.25000
C585        C  0.33288714  0.97042729  0.40759289    -0.23100
C586        C  0.34468524  0.99932749  0.43776439     0.19910
C587        C  0.31589926  0.99710323  0.46503879     0.24950
C588        C  0.27457959  0.96643456  0.46212450    -0.23050
C589        C  0.26295832  0.93703679  0.43253631     0.19850
F590        F  0.22334009  0.90699459  0.42893124    -0.13010
F591        F  0.27852576  0.91097142  0.37645823    -0.15370
F592        F  0.32798481  0.52628326  0.99296989    -0.15370
F593        F  0.38388142  0.53014328  0.44052740    -0.13010
C594        C  0.15860643  0.99897836  0.42974855     0.25000
C595        C  0.15016061  0.97935317  0.46625894    -0.23100
C596        C  0.10940899  0.95903136  0.48008948     0.19910
C597        C  0.07779832  0.95720960  0.45704384     0.24950
C598        C  0.08620626  0.97412750  0.41927421    -0.23050
C599        C  0.12703272  0.99494287  0.40597336     0.19850
F600        F  0.13674918  0.51097767  0.36940077    -0.13010
F601        F  0.19763292  0.52171729  0.41652554    -0.15370
F602        F  0.03877316  0.93665935  0.47060347    -0.15370
F603        F  0.09975078  0.93907937  0.01489869    -0.13010
C604        C  0.28013824  0.94607197  0.18874928     0.25000
C605        C  0.28483141  0.98388432  0.17818617    -0.23100
C606        C  0.31743780  0.51960958  0.19353696     0.19910
C607        C  0.34449931  0.51755428  0.22014521     0.24950
C608        C  0.33899330  0.97940509  0.23236756    -0.23100
C609        C  0.30679729  0.94373881  0.21551395     0.19850
F610        F  0.29976334  0.90628388  0.22592299    -0.13010
F611        F  0.24835140  0.91111723  0.17445922    -0.15370
F612        F  0.37512477  0.55302098  0.23484432    -0.15370
F613        F  0.32211898  0.55643491  0.18386354    -0.13010
C614        C  0.10541541  0.94906490  0.23549851     0.25000
C615        C  0.08420897  0.96876561  0.22301829    -0.23100
C616        C  0.09428370  0.98891034  0.18673690     0.19910
C617        C  0.12629647  0.99086581  0.16423616     0.24950
C618        C  0.14791842  0.97161502  0.17716779    -0.23050
C619        C  0.13594761  0.94948804  0.21241134     0.19850
F620        F  0.15368120  0.92792709  0.22467197    -0.13010
F621        F  0.09635224  0.92880644  0.27014807    -0.15370
F622        F  0.13733827  0.01322057  0.13078903    -0.15370
F623        F  0.07486185  0.00871269  0.17414033    -0.13010
C624        C  0.33604520  0.84304648  0.47868130     0.25000
C625        C  0.31537949  0.80233584  0.46530708    -0.23100
C626        C  0.32662836  0.79355081  0.42898524     0.19910
C627        C  0.35475982  0.82471137  0.40514257     0.24950
C628        C  0.37523774  0.86537452  0.41818615    -0.23050
C629        C  0.36639551  0.87419201  0.45558452     0.19850
F630        F  0.38536968  0.91315628  0.46882134    -0.13010
F631        F  0.32569519  0.85309466  0.01319399    -0.15370
F632        F  0.36202752  0.81470143  0.36912467    -0.15370
F633        F  0.31040005  0.75456798  0.41624924    -0.13010
C634        C  0.17012604  0.62657508  0.40756810     0.25000
C635        C  0.12834131  0.61403485  0.40952273    -0.23100
C636        C  0.11438127  0.62925618  0.43971215     0.19910
C637        C  0.14200653  0.65811793  0.46618510     0.24950
C638        C  0.18402361  0.67224414  0.46273864    -0.23050
C639        C  0.19763410  0.65534791  0.43384871     0.19850
F640        F  0.23797433  0.66756037  0.43044517    -0.13010
F641        F  0.18477896  0.61271595  0.37879802    -0.15370
F642        F  0.12794842  0.67359255  0.99394035    -0.15370
F643        F  0.07403545  0.61619986  0.44364500    -0.13010
C644        C  0.30233368  0.81994788  0.21115857     0.25000
C645        C  0.31211150  0.80766965  0.17598479    -0.23100
C646        C  0.35318063  0.82837626  0.16307303     0.19910
C647        C  0.38380805  0.85970904  0.18565530     0.24950
C648        C  0.37405593  0.86983068  0.22201898    -0.23050
C649        C  0.33296968  0.84953443  0.23442826     0.19850
F650        F  0.32219082  0.85800491  0.26955066    -0.13010
F651        F  0.26293551  0.80299335  0.22343210    -0.15370
F652        F  0.42323178  0.87813622  0.17323547    -0.15370
F653        F  0.36410488  0.81687208  0.12973914    -0.13010
C654        C  0.11921408  0.62831876  0.20259518     0.25000
C655        C  0.13144515  0.61389798  0.23475447    -0.23100
C656        C  0.17296977  0.62556901  0.23863889     0.19910
C657        C  0.20190928  0.65245653  0.21193315     0.24950
C658        C  0.19007210  0.66838664  0.18071494    -0.23050
C659        C  0.14829642  0.65530550  0.17571145     0.19850
F660        F  0.13588469  0.67026386  0.14597369    -0.13010
F661        F  0.07920183  0.61629990  0.19717097    -0.15370
F662        F  0.24183832  0.66384341  0.21721362    -0.15370
F663        F  0.18597157  0.61255769  0.26954106    -0.13010
C664        C  0.22163397  0.70232787  0.65678101     0.04540
C665        C  0.22039952  0.70153982  0.61573805    -0.11610
C666        C  0.24824196  0.73593663  0.59347270     0.02040
C667        C  0.27665282  0.77134120  0.61402474    -0.10140
C668        C  0.27997997  0.77142740  0.65480472     0.04530
C669        C  0.25238910  0.73665405  0.67579433    -0.09560
H670        H  0.19779954  0.67372341  0.60195746     0.10120
H671        H  0.29607345  0.79961268  0.59890300     0.07650
H672        H  0.25429703  0.73646941  0.70737562     0.07500
C673        C  0.21460368  0.70666600  0.98661923     0.04540
C674        C  0.21435146  0.70549479  0.52766484    -0.11610
C675        C  0.24777472  0.73575866  0.54935098     0.02040
C676        C  0.28176256  0.76596740  0.52815074    -0.10140
C677        C  0.28053679  0.76929163  0.98744435     0.04530
C678        C  0.24608735  0.74011827  0.96726545    -0.09560
H679        H  0.18832858  0.68052949  0.54184769     0.10120
H680        H  0.30992983  0.78672337  0.54273288     0.07650
H681        H  0.24410637  0.74246479  0.93586011     0.07500
C682        C  0.25235719  0.98503610  0.65538655     0.04540
C683        C  0.25237921  0.98417357  0.61443948    -0.11610
C684        C  0.21777537  0.97818007  0.59304420     0.02040
C685        C  0.18307125  0.97220370  0.61439880    -0.10140
C686        C  0.18395280  0.97592229  0.65522610     0.04530
C687        C  0.21912582  0.98284777  0.67537552    -0.09560
H688        H  0.27947100  0.98791772  0.60005147     0.10120
H689        H  0.15456444  0.96353484  0.59979914     0.07650
H690        H  0.22048030  0.98550237  0.70694493     0.07500
C691        C  0.24288529  0.96848348  0.98605698     0.04540
C692        C  0.24502425  0.97066276  0.52702997    -0.11610
C693        C  0.21688920  0.97695642  0.54901062     0.02040
C694        C  0.18746079  0.98221848  0.52829719    -0.10140
C695        C  0.18332010  0.97724982  0.98768258     0.04530
C696        C  0.21102227  0.97001793  0.96700299    -0.09560
H697        H  0.26841054  0.96679251  0.54104233     0.10120
H698        H  0.16780154  0.99083873  0.54324916     0.07650
H699        H  0.20835572  0.96629248  0.93556817     0.07500
C700        C  0.97727953  0.73487988  0.65570992     0.04540
C701        C  0.98123855  0.73729850  0.61476976    -0.11610
C702        C  0.98233144  0.70603403  0.59297133     0.02040
C703        C  0.98093507  0.67320685  0.61435016    -0.10140
C704        C  0.97883669  0.67155956  0.65525297     0.04530
C705        C  0.97599227  0.70200519  0.67545817    -0.09560
H706        H  0.98266207  0.76342855  0.60075394     0.10120
H707        H  0.98157287  0.64831492  0.60007880     0.07650
H708        H  0.97316523  0.70039393  0.70704049     0.07500
C709        C  0.47520177  0.73221926  0.98506522     0.04540
C710        C  0.47791824  0.73494889  0.52610110    -0.11610
C711        C  0.48302720  0.70623389  0.54857832     0.02040
C712        C  0.48836451  0.67691627  0.52775670    -0.10140
C713        C  0.48251734  0.67206041  0.98727883     0.04530
C714        C  0.47399897  0.69878096  0.96667970    -0.09560
H715        H  0.47686620  0.76004679  0.53954505     0.10120
H716        H  0.49797996  0.65790631  0.54214036     0.07650
H717        H  0.46830984  0.69484181  0.93550944     0.07500
O718        O  0.39220623  0.00978617  0.77941275    -0.86770
C719        C  0.10046680  0.58733768  0.87859368     1.13270
O720        O  0.43859956  0.97263142  0.82096071    -1.34580
O721        O  0.07429530  0.59468387  0.77679796    -0.88260
O722        O  0.35841386  0.94202748  0.77509477    -0.88920
O723        O  0.43814232  0.92986927  0.73764774    -0.77740
O724        O  0.48287711  0.55245521  0.78531841    -0.99830
C725        C  0.05411126  0.97016090  0.74966151     1.23310
O726        O  0.47914766  0.92835131  0.82074219    -1.34730
Mn727      Mn  0.47997798  0.97086209  0.86376522     1.82050
O728        O  0.02355049  0.97191937  0.73814222    -0.76820
O729        O  0.10680597  0.55917291  0.77884526    -0.86220
C730        C  0.05337608  0.96941327  0.89254460     1.14400
C731        C  0.10193803  0.58740884  0.76490328     1.09120
O732        O  0.43607122  0.92880772  0.90339750    -0.77760
O733        O  0.02362344  0.51315766  0.82131023    -1.31450
O734        O  0.39923112  0.89300953  0.85658762    -0.96970
C735        C  0.47653825  0.85155488  0.76349650     1.07840
Mn736      Mn  0.08038346  0.51464066  0.82166153     1.48570
O737        O  0.44303025  0.84586106  0.77774507    -0.86170
Mn738      Mn  0.38035406  0.91952231  0.81951389     1.49560
O739        O  0.39220650  0.00744282  0.86716615    -0.90040
C740        C  0.48231982  0.54697794  0.75024261     1.21030
C741        C  0.36239459  0.97286835  0.87746561     1.13090
Mn742      Mn  0.48074273  0.97185952  0.77824931     1.80970
O743        O  0.05826764  0.96859011  0.85751984    -0.95200
Mn744      Mn  0.43702817  0.52771603  0.82251234     1.49260
C745        C  0.36495131  0.97685788  0.76394216     1.09610
Mn746      Mn  0.03236612  0.92330260  0.82035112     1.49930
C747        C  0.47717040  0.85122151  0.87728198     1.12510
O748        O  0.40050065  0.89354677  0.78389592    -1.01000
O749        O  0.10552381  0.55886432  0.86557195    -0.90660
C750        C  0.40595221  0.89890822  0.74889597     1.23790
O751        O  0.05882151  0.96945884  0.78470619    -1.01390
O752        O  0.07378010  0.59500562  0.86510385    -0.88780
O753        O  0.01129519  0.87807832  0.86318465    -0.88390
O754        O  0.35556278  0.93960898  0.86214277    -0.88420
Mn755      Mn  0.02920717  0.57152309  0.82118970     1.47860
O756        O  0.02164855  0.96902762  0.90394886    -0.76890
C757        C  0.40447679  0.89763720  0.89166599     1.16850
O758        O  0.48113744  0.51503088  0.73868805    -0.75620
O759        O  0.48128090  0.51369947  0.90432101    -0.75230
Mn760      Mn  0.42400541  0.87154869  0.82091913     1.51060
O761        O  0.01125287  0.87932420  0.77565289    -0.87590
O762        O  0.48359810  0.55155346  0.85804710    -0.95120
O763        O  0.44307237  0.84630130  0.86552090    -0.90130
C764        C  0.48385226  0.54636310  0.89305106     1.14630
C765        C  0.46992064  0.60003044  0.98042462     0.25000
C766        C  0.48664267  0.64013617  0.96576572    -0.23100
C767        C  0.50614260  0.64938684  0.92907805     0.19910
C768        C  0.50527971  0.61887370  0.90598976     0.24950
C769        C  0.48725182  0.57849496  0.91984258    -0.23050
C770        C  0.47122155  0.56971993  0.95798744     0.19850
F771        F  0.45434114  0.53129897  0.97255163    -0.13010
F772        F  0.45041157  0.58950291  0.51548357    -0.15370
F773        F  0.02266332  0.62922410  0.86993193    -0.15370
F774        F  0.02621633  0.68819670  0.91522679    -0.13010
C775        C  0.45072824  0.78109043  0.96588922     0.25000
C776        C  0.47700294  0.76531004  0.96007994    -0.23100
C777        C  0.50465748  0.78007235  0.92843468     0.19910
C778        C  0.50476759  0.80826414  0.90221386     0.24950
C779        C  0.47763971  0.82304809  0.90706187    -0.23050
C780        C  0.45102557  0.80973466  0.93951179     0.19850
F781        F  0.42575166  0.82479522  0.94597642    -0.13010
F782        F  0.42392451  0.76787070  0.49623483    -0.15370
F783        F  0.53047958  0.81987906  0.87099670    -0.15370
F784        F  0.53168766  0.76693492  0.92261940    -0.13010
C785        C  0.45918318  0.56730638  0.68956921     0.25000
C786        C  0.48349172  0.57809983  0.72338144    -0.23100
C787        C  0.00694126  0.61949925  0.73359087     0.19910
C788        C  0.00676951  0.64951541  0.71032322     0.24950
C789        C  0.48111302  0.63895561  0.67747696    -0.23050
C790        C  0.45741643  0.59744358  0.66713232     0.19850
F791        F  0.43114801  0.58583245  0.63649649    -0.13010
F792        F  0.43517489  0.52751545  0.67971374    -0.15370
F793        F  0.03194072  0.68916943  0.72008531    -0.15370
F794        F  0.03022846  0.63120881  0.76638084    -0.13010
C795        C  0.00603961  0.80733367  0.67793669     0.25000
C796        C  0.47452016  0.76640659  0.67894838    -0.23100
C797        C  0.44213227  0.75465211  0.70556953     0.19910
C798        C  0.44216710  0.78269435  0.73198451     0.24950
C799        C  0.47474135  0.82329106  0.73250115    -0.23050
C800        C  0.00614161  0.83552949  0.70447135     0.19850
F801        F  0.03711712  0.87468815  0.70284957    -0.13010
F802        F  0.03783005  0.81955228  0.65267947    -0.15370
F803        F  0.41128397  0.76936971  0.75847732    -0.15370
F804        F  0.41089464  0.71545262  0.70678310    -0.13010
C805        C  0.29168728  0.93891297  0.90568032     0.25000
C806        C  0.33288714  0.97042729  0.90759289    -0.23100
C807        C  0.34468524  0.99932748  0.93776439     0.19910
C808        C  0.31589926  0.99710321  0.96503880     0.24950
C809        C  0.27457959  0.96643456  0.96212450    -0.23050
C810        C  0.26295832  0.93703680  0.93253630     0.19850
F811        F  0.22334008  0.90699460  0.92893123    -0.13010
F812        F  0.27852575  0.91097144  0.87645821    -0.15370
F813        F  0.32798481  0.52628329  0.49296988    -0.15370
F814        F  0.38388142  0.53014325  0.94052742    -0.13010
C815        C  0.15860643  0.99897837  0.92974855     0.25000
C816        C  0.15016062  0.97935318  0.96625894    -0.23100
C817        C  0.10940900  0.95903137  0.98008948     0.19910
C818        C  0.07779832  0.95720960  0.95704385     0.24950
C819        C  0.08620627  0.97412750  0.91927421    -0.23050
C820        C  0.12703272  0.99494287  0.90597336     0.19850
F821        F  0.13674919  0.51097767  0.86940077    -0.13010
F822        F  0.19763292  0.52171729  0.91652554    -0.15370
F823        F  0.03877316  0.93665936  0.97060347    -0.15370
F824        F  0.09975077  0.93907937  0.51489869    -0.13010
C825        C  0.28013822  0.94607196  0.68874931     0.25000
C826        C  0.28483141  0.98388431  0.67818617    -0.23100
C827        C  0.31743784  0.51960958  0.69353692     0.19910
C828        C  0.34449935  0.51755427  0.72014517     0.24950
C829        C  0.33899330  0.97940508  0.73236756    -0.23100
C830        C  0.30679726  0.94373880  0.71551398     0.19850
F831        F  0.29976329  0.90628386  0.72592304    -0.13010
F832        F  0.24835135  0.91111722  0.67445927    -0.15370
F833        F  0.37512484  0.55302098  0.73484423    -0.15370
F834        F  0.32211905  0.55643491  0.68386346    -0.13010
C835        C  0.10541542  0.94906490  0.73549851     0.25000
C836        C  0.08420898  0.96876562  0.72301829    -0.23100
C837        C  0.09428371  0.98891034  0.68673690     0.19910
C838        C  0.12629648  0.99086581  0.66423617     0.24950
C839        C  0.14791843  0.97161502  0.67716779    -0.23050
C840        C  0.13594761  0.94948804  0.71241134     0.19850
F841        F  0.15368120  0.92792709  0.72467196    -0.13010
F842        F  0.09635225  0.92880644  0.77014807    -0.15370
F843        F  0.13733828  0.01322058  0.63078904    -0.15370
F844        F  0.07486186  0.00871270  0.67414034    -0.13010
C845        C  0.33604519  0.84304649  0.97868130     0.25000
C846        C  0.31537948  0.80233585  0.96530709    -0.23100
C847        C  0.32662835  0.79355082  0.92898524     0.19910
C848        C  0.35475982  0.82471137  0.90514257     0.24950
C849        C  0.37523774  0.86537452  0.91818615    -0.23050
C850        C  0.36639550  0.87419202  0.95558452     0.19850
F851        F  0.38536967  0.91315629  0.96882134    -0.13010
F852        F  0.32569520  0.85309465  0.51319399    -0.15370
F853        F  0.36202752  0.81470143  0.86912468    -0.15370
F854        F  0.31040005  0.75456798  0.91624924    -0.13010
C855        C  0.17012604  0.62657508  0.90756810     0.25000
C856        C  0.12834131  0.61403485  0.90952274    -0.23100
C857        C  0.11438127  0.62925618  0.93971215     0.19910
C858        C  0.14200652  0.65811793  0.96618510     0.24950
C859        C  0.18402361  0.67224414  0.96273865    -0.23050
C860        C  0.19763410  0.65534792  0.93384871     0.19850
F861        F  0.23797433  0.66756038  0.93044517    -0.13010
F862        F  0.18477896  0.61271596  0.87879802    -0.15370
F863        F  0.12794843  0.67359255  0.49394035    -0.15370
F864        F  0.07403545  0.61619986  0.94364500    -0.13010
C865        C  0.30233369  0.81994788  0.71115857     0.25000
C866        C  0.31211151  0.80766964  0.67598479    -0.23100
C867        C  0.35318064  0.82837626  0.66307303     0.19910
C868        C  0.38380806  0.85970903  0.68565531     0.24950
C869        C  0.37405593  0.86983067  0.72201898    -0.23050
C870        C  0.33296969  0.84953443  0.73442825     0.19850
F871        F  0.32219082  0.85800491  0.76955065    -0.13010
F872        F  0.26293552  0.80299335  0.72343209    -0.15370
F873        F  0.42323179  0.87813621  0.67323548    -0.15370
F874        F  0.36410490  0.81687207  0.62973915    -0.13010
C875        C  0.11921409  0.62831876  0.70259518     0.25000
C876        C  0.13144515  0.61389798  0.73475448    -0.23100
C877        C  0.17296978  0.62556900  0.73863889     0.19910
C878        C  0.20190929  0.65245652  0.71193315     0.24950
C879        C  0.19007211  0.66838664  0.68071494    -0.23050
C880        C  0.14829643  0.65530551  0.67571145     0.19850
F881        F  0.13588470  0.67026386  0.64597369    -0.13010
F882        F  0.07920184  0.61629991  0.69717097    -0.15370
F883        F  0.24183833  0.66384340  0.71721362    -0.15370
F884        F  0.18597157  0.61255768  0.76954105    -0.13010
C885        C  0.72163398  0.20232786  0.15678101     0.04540
C886        C  0.72039953  0.20153981  0.11573804    -0.11610
C887        C  0.74824196  0.23593662  0.09347270     0.02040
C888        C  0.77665283  0.27134120  0.11402474    -0.10140
C889        C  0.77997998  0.27142739  0.15480472     0.04530
C890        C  0.75238911  0.23665404  0.17579433    -0.09560
H891        H  0.69779955  0.17372340  0.10195746     0.10120
H892        H  0.79607346  0.29961267  0.09890300     0.07650
H893        H  0.75429703  0.23646940  0.20737562     0.07500
C894        C  0.71460370  0.20666598  0.48661923     0.04540
C895        C  0.71435147  0.20549478  0.02766484    -0.11610
C896        C  0.74777473  0.23575865  0.04935098     0.02040
C897        C  0.78176257  0.26596739  0.02815074    -0.10140
C898        C  0.78053681  0.26929161  0.48744435     0.04530
C899        C  0.74608737  0.24011825  0.46726545    -0.09560
H900        H  0.68832859  0.18052948  0.04184769     0.10120
H901        H  0.80992984  0.28672336  0.04273288     0.07650
H902        H  0.74410638  0.24246477  0.43586011     0.07500
C903        C  0.75235718  0.48503608  0.15538655     0.04540
C904        C  0.75237920  0.48417355  0.11443948    -0.11610
C905        C  0.71777535  0.47818004  0.09304419     0.02040
C906        C  0.68307123  0.47220367  0.11439880    -0.10140
C907        C  0.68395279  0.47592227  0.15522610     0.04530
C908        C  0.71912581  0.48284775  0.17537552    -0.09560
H909        H  0.77947098  0.48791769  0.10005147     0.10120
H910        H  0.65456443  0.46353481  0.09979914     0.07650
H911        H  0.72048029  0.48550235  0.20694493     0.07500
C912        C  0.74288528  0.46848346  0.48605698     0.04540
C913        C  0.74502423  0.47066273  0.02702997    -0.11610
C914        C  0.71688919  0.47695639  0.04901062     0.02040
C915        C  0.68746078  0.48221847  0.02829719    -0.10140
C916        C  0.68332009  0.47724981  0.48768257     0.04530
C917        C  0.71102226  0.47001792  0.46700299    -0.09560
H918        H  0.76841051  0.46679247  0.04104233     0.10120
H919        H  0.66780154  0.49083871  0.04324917     0.07650
H920        H  0.70835571  0.46629247  0.43556817     0.07500
C921        C  0.47727953  0.23487988  0.15570992     0.04540
C922        C  0.48123855  0.23729850  0.11476976    -0.11610
C923        C  0.48233144  0.20603403  0.09297133     0.02040
C924        C  0.48093506  0.17320684  0.11435016    -0.10140
C925        C  0.47883669  0.17155956  0.15525297     0.04530
C926        C  0.47599226  0.20200518  0.17545818    -0.09560
H927        H  0.48266207  0.26342855  0.10075394     0.10120
H928        H  0.48157286  0.14831491  0.10007880     0.07650
H929        H  0.47316523  0.20039393  0.20704050     0.07500
C930        C  0.97520178  0.23221927  0.48506523     0.04540
C931        C  0.97791822  0.23494888  0.02610110    -0.11610
C932        C  0.98302719  0.20623388  0.04857832     0.02040
C933        C  0.98836451  0.17691627  0.02775670    -0.10140
C934        C  0.98251734  0.17206041  0.48727883     0.04530
C935        C  0.97399897  0.19878097  0.46667970    -0.09560
H936        H  0.97686618  0.26004678  0.03954505     0.10120
H937        H  0.99797996  0.15790631  0.04214036     0.07650
H938        H  0.96830984  0.19484182  0.43550944     0.07500
O939        O  0.89220622  0.50978616  0.27941275    -0.86770
C940        C  0.60046681  0.08733767  0.37859367     1.13270
O941        O  0.93859956  0.47263141  0.32096071    -1.34580
O942        O  0.57429531  0.09468387  0.27679795    -0.88260
O943        O  0.85841385  0.44202747  0.27509477    -0.88920
O944        O  0.93814232  0.42986927  0.23764774    -0.77740
O945        O  0.98287711  0.05245521  0.28531841    -0.99830
C946        C  0.55411125  0.47016090  0.24966151     1.23310
O947        O  0.97914767  0.42835131  0.32074219    -1.34730
Mn948      Mn  0.97997797  0.47086209  0.36376522     1.82050
O949        O  0.52355048  0.47191937  0.23814222    -0.76820
O950        O  0.60680597  0.05917290  0.27884526    -0.86220
C951        C  0.55337607  0.46941326  0.39254460     1.14400
C952        C  0.60193803  0.08740883  0.26490327     1.09120
O953        O  0.93607122  0.42880771  0.40339750    -0.77760
O954        O  0.52362344  0.01315766  0.32131023    -1.31450
O955        O  0.89923112  0.39300953  0.35658762    -0.96970
C956        C  0.97653826  0.35155489  0.26349650     1.07840
Mn957      Mn  0.58038346  0.01464065  0.32166153     1.48570
O958        O  0.94303026  0.34586107  0.27774507    -0.86170
Mn959      Mn  0.88035406  0.41952230  0.31951389     1.49560
O960        O  0.89220649  0.50744281  0.36716615    -0.90040
C961        C  0.98231982  0.04697794  0.25024261     1.21030
C962        C  0.86239458  0.47286834  0.37746561     1.13090
Mn963      Mn  0.98074272  0.47185952  0.27824931     1.80970
O964        O  0.55826764  0.46859011  0.35751984    -0.95200
Mn965      Mn  0.93702817  0.02771604  0.32251234     1.49260
C966        C  0.86495130  0.47685787  0.26394216     1.09610
Mn967      Mn  0.53236611  0.42330260  0.32035111     1.49930
C968        C  0.97717041  0.35122152  0.37728199     1.12510
O969        O  0.90050065  0.39354676  0.28389592    -1.01000
O970        O  0.60552382  0.05886431  0.36557195    -0.90660
C971        C  0.90595221  0.39890821  0.24889596     1.23790
O972        O  0.55882150  0.46945884  0.28470619    -1.01390
O973        O  0.57378012  0.09500562  0.36510385    -0.88780
O974        O  0.51129518  0.37807832  0.36318465    -0.88390
O975        O  0.85556277  0.43960897  0.36214277    -0.88420
Mn976      Mn  0.52920718  0.07152309  0.32118970     1.47860
O977        O  0.52164855  0.46902762  0.40394886    -0.76890
C978        C  0.90447679  0.39763719  0.39166599     1.16850
O979        O  0.98113743  0.01503088  0.23868805    -0.75620
O980        O  0.98128089  0.01369947  0.40432101    -0.75230
Mn981      Mn  0.92400542  0.37154869  0.32091912     1.51060
O982        O  0.51125286  0.37932420  0.27565289    -0.87590
O983        O  0.98359810  0.05155346  0.35804710    -0.95120
O984        O  0.94307238  0.34630130  0.36552090    -0.90130
C985        C  0.98385226  0.04636310  0.39305106     1.14630
C986        C  0.96992063  0.10003044  0.48042462     0.25000
C987        C  0.98664266  0.14013617  0.46576572    -0.23100
C988        C  0.00614260  0.14938684  0.42907805     0.19910
C989        C  0.00527971  0.11887370  0.40598976     0.24950
C990        C  0.98725182  0.07849496  0.41984258    -0.23050
C991        C  0.97122154  0.06971993  0.45798744     0.19850
F992        F  0.95434113  0.03129897  0.47255162    -0.13010
F993        F  0.95041157  0.08950290  0.01548357    -0.15370
F994        F  0.52266334  0.12922411  0.36993193    -0.15370
F995        F  0.52621636  0.18819670  0.41522679    -0.13010
C996        C  0.95072825  0.28109044  0.46588923     0.25000
C997        C  0.97700294  0.26531005  0.46007994    -0.23100
C998        C  0.00465748  0.28007235  0.42843468     0.19910
C999        C  0.00476760  0.30826415  0.40221386     0.24950
C1000       C  0.97763971  0.32304809  0.40706187    -0.23050
C1001       C  0.95102558  0.30973467  0.43951180     0.19850
F1002       F  0.92575167  0.32479523  0.44597642    -0.13010
F1003       F  0.92392450  0.26787070  0.99623483    -0.15370
F1004       F  0.03047959  0.31987907  0.37099670    -0.15370
F1005       F  0.03168767  0.26693492  0.42261940    -0.13010
C1006       C  0.95918315  0.06730637  0.18956922     0.25000
C1007       C  0.98349171  0.07809983  0.22338144    -0.23100
C1008       C  0.50694127  0.11949926  0.23359087     0.19910
C1009       C  0.50676952  0.14951541  0.21032321     0.24950
C1010       C  0.98111301  0.13895560  0.17747696    -0.23050
C1011       C  0.95741641  0.09744357  0.16713233     0.19850
F1012       F  0.93114797  0.08583244  0.13649651    -0.13010
F1013       F  0.93517485  0.02751544  0.17971377    -0.15370
F1014       F  0.53194073  0.18916943  0.22008530    -0.15370
F1015       F  0.53022848  0.13120881  0.26638083    -0.13010
C1016       C  0.50603961  0.30733367  0.17793669     0.25000
C1017       C  0.97452017  0.26640659  0.17894838    -0.23100
C1018       C  0.94213228  0.25465211  0.20556953     0.19910
C1019       C  0.94216711  0.28269435  0.23198451     0.24950
C1020       C  0.97474136  0.32329106  0.23250115    -0.23050
C1021       C  0.50614160  0.33552949  0.20447135     0.19850
F1022       F  0.53711711  0.37468815  0.20284957    -0.13010
F1023       F  0.53783005  0.31955228  0.15267947    -0.15370
F1024       F  0.91128397  0.26936972  0.25847731    -0.15370
F1025       F  0.91089464  0.21545263  0.20678310    -0.13010
C1026       C  0.79168727  0.43891295  0.40568032     0.25000
C1027       C  0.83288713  0.47042728  0.40759289    -0.23100
C1028       C  0.84468523  0.49932747  0.43776439     0.19910
C1029       C  0.81589925  0.49710320  0.46503880     0.24950
C1030       C  0.77457958  0.46643454  0.46212449    -0.23050
C1031       C  0.76295831  0.43703678  0.43253630     0.19850
F1032       F  0.72334007  0.40699459  0.42893122    -0.13010
F1033       F  0.77852574  0.41097143  0.37645821    -0.15370
F1034       F  0.82798481  0.02628328  0.99296988    -0.15370
F1035       F  0.88388142  0.03014329  0.44052739    -0.13010
C1036       C  0.65860643  0.49897836  0.42974855     0.25000
C1037       C  0.65016061  0.47935317  0.46625894    -0.23100
C1038       C  0.60940899  0.45903136  0.48008948     0.19910
C1039       C  0.57779832  0.45720960  0.45704385     0.24950
C1040       C  0.58620626  0.47412750  0.41927421    -0.23050
C1041       C  0.62703272  0.49494287  0.40597336     0.19850
F1042       F  0.63674918  0.01097766  0.36940076    -0.13010
F1043       F  0.69763292  0.02171728  0.41652553    -0.15370
F1044       F  0.53877316  0.43665936  0.47060347    -0.15370
F1045       F  0.59975077  0.43907936  0.01489869    -0.13010
C1046       C  0.78013823  0.44607195  0.18874929     0.25000
C1047       C  0.78483140  0.48388430  0.17818617    -0.23100
C1048       C  0.81743782  0.01960959  0.19353696     0.19910
C1049       C  0.84449932  0.01755428  0.22014520     0.24950
C1050       C  0.83899329  0.47940507  0.23236756    -0.23100
C1051       C  0.80679728  0.44373879  0.21551395     0.19850
F1052       F  0.79976332  0.40628386  0.22592300    -0.13010
F1053       F  0.74835138  0.41111721  0.17445923    -0.15370
F1054       F  0.87512479  0.05302099  0.23484430    -0.15370
F1055       F  0.82211900  0.05643492  0.18386352    -0.13010
C1056       C  0.60541541  0.44906489  0.23549851     0.25000
C1057       C  0.58420897  0.46876561  0.22301829    -0.23100
C1058       C  0.59428370  0.48891033  0.18673689     0.19910
C1059       C  0.62629646  0.49086579  0.16423616     0.24950
C1060       C  0.64791842  0.47161501  0.17716779    -0.23050
C1061       C  0.63594760  0.44948803  0.21241134     0.19850
F1062       F  0.65368119  0.42792708  0.22467197    -0.13010
F1063       F  0.59635224  0.42880644  0.27014807    -0.15370
F1064       F  0.63733826  0.51322055  0.13078903    -0.15370
F1065       F  0.57486184  0.50871268  0.17414033    -0.13010
C1066       C  0.83604521  0.34304647  0.47868131     0.25000
C1067       C  0.81537950  0.30233583  0.46530709    -0.23100
C1068       C  0.82662837  0.29355080  0.42898524     0.19910
C1069       C  0.85475983  0.32471136  0.40514257     0.24950
C1070       C  0.87523774  0.36537452  0.41818615    -0.23050
C1071       C  0.86639551  0.37419200  0.45558452     0.19850
F1072       F  0.88536968  0.41315627  0.46882135    -0.13010
F1073       F  0.82569521  0.35309464  0.01319400    -0.15370
F1074       F  0.86202752  0.31470142  0.36912467    -0.15370
F1075       F  0.81040006  0.25456797  0.41624924    -0.13010
C1076       C  0.67012605  0.12657507  0.40756810     0.25000
C1077       C  0.62834132  0.11403484  0.40952273    -0.23100
C1078       C  0.61438129  0.12925617  0.43971215     0.19910
C1079       C  0.64200654  0.15811792  0.46618510     0.24950
C1080       C  0.68402362  0.17224412  0.46273865    -0.23050
C1081       C  0.69763411  0.15534790  0.43384871     0.19850
F1082       F  0.73797434  0.16756036  0.43044517    -0.13010
F1083       F  0.68477897  0.11271594  0.37879802    -0.15370
F1084       F  0.62794844  0.17359253  0.99394036    -0.15370
F1085       F  0.57403546  0.11619986  0.44364500    -0.13010
C1086       C  0.80233369  0.31994787  0.21115857     0.25000
C1087       C  0.81211151  0.30766963  0.17598479    -0.23100
C1088       C  0.85318064  0.32837625  0.16307303     0.19910
C1089       C  0.88380806  0.35970903  0.18565531     0.24950
C1090       C  0.87405594  0.36983067  0.22201898    -0.23050
C1091       C  0.83296969  0.34953442  0.23442825     0.19850
F1092       F  0.82219082  0.35800490  0.26955066    -0.13010
F1093       F  0.76293552  0.30299334  0.22343209    -0.15370
F1094       F  0.92323179  0.37813621  0.17323548    -0.15370
F1095       F  0.86410490  0.31687207  0.12973915    -0.13010
C1096       C  0.61921409  0.12831875  0.20259518     0.25000
C1097       C  0.63144516  0.11389797  0.23475447    -0.23100
C1098       C  0.67296978  0.12556900  0.23863890     0.19910
C1099       C  0.70190929  0.15245651  0.21193315     0.24950
C1100       C  0.69007212  0.16838663  0.18071493    -0.23050
C1101       C  0.64829644  0.15530549  0.17571145     0.19850
F1102       F  0.63588471  0.17026385  0.14597369    -0.13010
F1103       F  0.57920184  0.11629989  0.19717096    -0.15370
F1104       F  0.74183833  0.16384339  0.21721363    -0.15370
F1105       F  0.68597158  0.11255768  0.26954106    -0.13010
C1106       C  0.72163398  0.20232786  0.65678102     0.04540
C1107       C  0.72039953  0.20153981  0.61573805    -0.11610
C1108       C  0.74824197  0.23593662  0.59347270     0.02040
C1109       C  0.77665283  0.27134119  0.61402474    -0.10140
C1110       C  0.77997998  0.27142739  0.65480472     0.04530
C1111       C  0.75238911  0.23665404  0.67579433    -0.09560
H1112       H  0.69779955  0.17372340  0.60195746     0.10120
H1113       H  0.79607346  0.29961267  0.59890300     0.07650
H1114       H  0.75429703  0.23646940  0.70737562     0.07500
C1115       C  0.71460369  0.20666599  0.98661922     0.04540
C1116       C  0.71435147  0.20549478  0.52766484    -0.11610
C1117       C  0.74777473  0.23575864  0.54935098     0.02040
C1118       C  0.78176257  0.26596739  0.52815074    -0.10140
C1119       C  0.78053681  0.26929161  0.98744435     0.04530
C1120       C  0.74608737  0.24011826  0.96726545    -0.09560
H1121       H  0.68832859  0.18052948  0.54184769     0.10120
H1122       H  0.80992984  0.28672336  0.54273288     0.07650
H1123       H  0.74410638  0.24246478  0.93586011     0.07500
C1124       C  0.75235718  0.48503609  0.65538654     0.04540
C1125       C  0.75237921  0.48417356  0.61443948    -0.11610
C1126       C  0.71777536  0.47818006  0.59304419     0.02040
C1127       C  0.68307124  0.47220369  0.61439880    -0.10140
C1128       C  0.68395280  0.47592228  0.65522610     0.04530
C1129       C  0.71912582  0.48284776  0.67537552    -0.09560
H1130       H  0.77947099  0.48791770  0.60005147     0.10120
H1131       H  0.65456444  0.46353483  0.59979914     0.07650
H1132       H  0.72048030  0.48550236  0.70694493     0.07500
C1133       C  0.74288528  0.46848346  0.98605697     0.04540
C1134       C  0.74502424  0.47066274  0.52702997    -0.11610
C1135       C  0.71688920  0.47695641  0.54901062     0.02040
C1136       C  0.68746078  0.48221848  0.52829719    -0.10140
C1137       C  0.68332009  0.47724980  0.98768257     0.04530
C1138       C  0.71102226  0.47001792  0.96700299    -0.09560
H1139       H  0.76841052  0.46679249  0.54104233     0.10120
H1140       H  0.66780155  0.49083873  0.54324917     0.07650
H1141       H  0.70835572  0.46629247  0.93556817     0.07500
C1142       C  0.47727954  0.23487988  0.65570992     0.04540
C1143       C  0.48123856  0.23729850  0.61476976    -0.11610
C1144       C  0.48233146  0.20603404  0.59297133     0.02040
C1145       C  0.48093509  0.17320686  0.61435016    -0.10140
C1146       C  0.47883671  0.17155957  0.65525297     0.04530
C1147       C  0.47599228  0.20200519  0.67545818    -0.09560
H1148       H  0.48266208  0.26342856  0.60075394     0.10120
H1149       H  0.48157289  0.14831493  0.60007880     0.07650
H1150       H  0.47316525  0.20039394  0.70704050     0.07500
C1151       C  0.97520178  0.23221927  0.98506522     0.04540
C1152       C  0.97791823  0.23494888  0.52610110    -0.11610
C1153       C  0.98302719  0.20623388  0.54857833     0.02040
C1154       C  0.98836450  0.17691627  0.52775670    -0.10140
C1155       C  0.98251734  0.17206042  0.98727883     0.04530
C1156       C  0.97399897  0.19878097  0.96667969    -0.09560
H1157       H  0.97686618  0.26004678  0.53954505     0.10120
H1158       H  0.99797995  0.15790631  0.54214036     0.07650
H1159       H  0.96830984  0.19484182  0.93550944     0.07500
O1160       O  0.89220623  0.50978616  0.77941275    -0.86770
C1161       C  0.60046681  0.08733768  0.87859367     1.13270
O1162       O  0.93859956  0.47263142  0.82096071    -1.34580
O1163       O  0.57429531  0.09468387  0.77679796    -0.88260
O1164       O  0.85841385  0.44202747  0.77509476    -0.88920
O1165       O  0.93814232  0.42986927  0.73764774    -0.77740
O1166       O  0.98287711  0.05245521  0.78531841    -0.99830
C1167       C  0.55411126  0.47016090  0.74966151     1.23310
O1168       O  0.97914767  0.42835131  0.82074219    -1.34730
Mn1169     Mn  0.97997797  0.47086209  0.86376522     1.82050
O1170       O  0.52355049  0.47191937  0.73814222    -0.76820
O1171       O  0.60680597  0.05917290  0.77884526    -0.86220
C1172       C  0.55337608  0.46941327  0.89254460     1.14400
C1173       C  0.60193803  0.08740883  0.76490328     1.09120
O1174       O  0.93607122  0.42880771  0.90339749    -0.77760
O1175       O  0.52362344  0.01315766  0.82131023    -1.31450
O1176       O  0.89923113  0.39300953  0.85658762    -0.96970
C1177       C  0.97653826  0.35155489  0.76349650     1.07840
Mn1178     Mn  0.58038346  0.01464065  0.82166153     1.48570
O1179       O  0.94303026  0.34586107  0.77774507    -0.86170
Mn1180     Mn  0.88035406  0.41952230  0.81951389     1.49560
O1181       O  0.89220649  0.50744281  0.86716615    -0.90040
C1182       C  0.98231982  0.04697793  0.75024261     1.21030
C1183       C  0.86239458  0.47286834  0.87746561     1.13090
Mn1184     Mn  0.98074273  0.47185952  0.77824931     1.80970
O1185       O  0.55826764  0.46859011  0.85751984    -0.95200
Mn1186     Mn  0.93702817  0.02771603  0.82251234     1.49260
C1187       C  0.86495130  0.47685787  0.76394215     1.09610
Mn1188     Mn  0.53236612  0.42330261  0.82035111     1.49930
C1189       C  0.97717041  0.35122152  0.87728198     1.12510
O1190       O  0.90050066  0.39354677  0.78389592    -1.01000
O1191       O  0.60552381  0.05886432  0.86557195    -0.90660
C1192       C  0.90595221  0.39890822  0.74889596     1.23790
O1193       O  0.55882150  0.46945884  0.78470619    -1.01390
O1194       O  0.57378011  0.09500562  0.86510385    -0.88780
O1195       O  0.51129519  0.37807832  0.86318465    -0.88390
O1196       O  0.85556277  0.43960897  0.86214277    -0.88420
Mn1197     Mn  0.52920717  0.07152309  0.82118970     1.47860
O1198       O  0.52164855  0.46902762  0.90394886    -0.76890
C1199       C  0.90447679  0.39763719  0.89166598     1.16850
O1200       O  0.98113744  0.01503087  0.73868804    -0.75620
O1201       O  0.98128089  0.01369947  0.90432101    -0.75230
Mn1202     Mn  0.92400542  0.37154869  0.82091912     1.51060
O1203       O  0.51125287  0.37932421  0.77565289    -0.87590
O1204       O  0.98359810  0.05155346  0.85804710    -0.95120
O1205       O  0.94307238  0.34630131  0.86552090    -0.90130
C1206       C  0.98385226  0.04636310  0.89305106     1.14630
C1207       C  0.96992064  0.10003044  0.98042462     0.25000
C1208       C  0.98664267  0.14013617  0.96576572    -0.23100
C1209       C  0.00614260  0.14938684  0.92907805     0.19910
C1210       C  0.00527970  0.11887370  0.90598975     0.24950
C1211       C  0.98725182  0.07849496  0.91984258    -0.23050
C1212       C  0.97122155  0.06971993  0.95798744     0.19850
F1213       F  0.95434114  0.03129897  0.97255162    -0.13010
F1214       F  0.95041156  0.08950290  0.51548356    -0.15370
F1215       F  0.52266334  0.12922411  0.86993193    -0.15370
F1216       F  0.52621637  0.18819671  0.91522679    -0.13010
C1217       C  0.95072824  0.28109043  0.96588922     0.25000
C1218       C  0.97700294  0.26531005  0.96007994    -0.23100
C1219       C  0.00465749  0.28007236  0.92843468     0.19910
C1220       C  0.00476760  0.30826415  0.90221386     0.24950
C1221       C  0.97763972  0.32304809  0.90706187    -0.23050
C1222       C  0.95102558  0.30973466  0.93951179     0.19850
F1223       F  0.92575166  0.32479522  0.94597641    -0.13010
F1224       F  0.92392451  0.26787071  0.49623483    -0.15370
F1225       F  0.03047960  0.31987907  0.87099670    -0.15370
F1226       F  0.03168768  0.26693493  0.92261940    -0.13010
C1227       C  0.95918316  0.06730637  0.68956922     0.25000
C1228       C  0.98349171  0.07809983  0.72338144    -0.23100
C1229       C  0.50694127  0.11949926  0.73359088     0.19910
C1230       C  0.50676953  0.14951541  0.71032322     0.24950
C1231       C  0.98111301  0.13895560  0.67747696    -0.23050
C1232       C  0.95741641  0.09744357  0.66713233     0.19850
F1233       F  0.93114797  0.08583244  0.63649650    -0.13010
F1234       F  0.93517486  0.02751544  0.67971376    -0.15370
F1235       F  0.53194074  0.18916943  0.72008532    -0.15370
F1236       F  0.53022847  0.13120881  0.76638085    -0.13010
C1237       C  0.50603962  0.30733367  0.67793669     0.25000
C1238       C  0.97452017  0.26640659  0.67894838    -0.23100
C1239       C  0.94213228  0.25465211  0.70556953     0.19910
C1240       C  0.94216711  0.28269435  0.73198451     0.24950
C1241       C  0.97474136  0.32329106  0.73250115    -0.23050
C1242       C  0.50614161  0.33552949  0.70447135     0.19850
F1243       F  0.53711712  0.37468816  0.70284957    -0.13010
F1244       F  0.53783006  0.31955229  0.65267947    -0.15370
F1245       F  0.91128397  0.26936972  0.75847731    -0.15370
F1246       F  0.91089464  0.21545263  0.70678310    -0.13010
C1247       C  0.79168727  0.43891296  0.90568031     0.25000
C1248       C  0.83288713  0.47042728  0.90759289    -0.23100
C1249       C  0.84468523  0.49932746  0.93776440     0.19910
C1250       C  0.81589925  0.49710319  0.96503881     0.24950
C1251       C  0.77457958  0.46643454  0.96212449    -0.23050
C1252       C  0.76295830  0.43703678  0.93253629     0.19850
F1253       F  0.72334007  0.40699460  0.92893121    -0.13010
F1254       F  0.77852574  0.41097144  0.87645819    -0.15370
F1255       F  0.82798481  0.02628329  0.49296987    -0.15370
F1256       F  0.88388143  0.03014327  0.94052740    -0.13010
C1257       C  0.65860643  0.49897836  0.92974855     0.25000
C1258       C  0.65016061  0.47935317  0.96625894    -0.23100
C1259       C  0.60940899  0.45903135  0.98008948     0.19910
C1260       C  0.57779832  0.45720960  0.95704384     0.24950
C1261       C  0.58620626  0.47412750  0.91927421    -0.23050
C1262       C  0.62703272  0.49494287  0.90597336     0.19850
F1263       F  0.63674918  0.01097766  0.86940076    -0.13010
F1264       F  0.69763292  0.02171729  0.91652553    -0.15370
F1265       F  0.53877316  0.43665935  0.97060346    -0.15370
F1266       F  0.59975077  0.43907937  0.51489869    -0.13010
C1267       C  0.78013821  0.44607195  0.68874931     0.25000
C1268       C  0.78483141  0.48388430  0.67818617    -0.23100
C1269       C  0.81743783  0.01960957  0.69353694     0.19910
C1270       C  0.84449933  0.01755427  0.72014518     0.24950
C1271       C  0.83899329  0.47940507  0.73236756    -0.23100
C1272       C  0.80679726  0.44373879  0.71551398     0.19850
F1273       F  0.79976328  0.40628386  0.72592305    -0.13010
F1274       F  0.74835134  0.41111721  0.67445928    -0.15370
F1275       F  0.87512481  0.05302098  0.73484426    -0.15370
F1276       F  0.82211902  0.05643491  0.68386349    -0.13010
C1277       C  0.60541541  0.44906490  0.73549851     0.25000
C1278       C  0.58420897  0.46876562  0.72301829    -0.23100
C1279       C  0.59428370  0.48891034  0.68673690     0.19910
C1280       C  0.62629647  0.49086580  0.66423616     0.24950
C1281       C  0.64791843  0.47161502  0.67716779    -0.23050
C1282       C  0.63594761  0.44948804  0.71241134     0.19850
F1283       F  0.65368120  0.42792709  0.72467197    -0.13010
F1284       F  0.59635225  0.42880645  0.77014807    -0.15370
F1285       F  0.63733827  0.51322057  0.63078903    -0.15370
F1286       F  0.57486185  0.50871269  0.67414033    -0.13010
C1287       C  0.83604521  0.34304647  0.97868131     0.25000
C1288       C  0.81537950  0.30233583  0.96530708    -0.23100
C1289       C  0.82662836  0.29355081  0.92898524     0.19910
C1290       C  0.85475982  0.32471137  0.90514257     0.24950
C1291       C  0.87523774  0.36537452  0.91818615    -0.23050
C1292       C  0.86639551  0.37419201  0.95558452     0.19850
F1293       F  0.88536968  0.41315628  0.96882135    -0.13010
F1294       F  0.82569521  0.35309464  0.51319400    -0.15370
F1295       F  0.86202752  0.31470143  0.86912467    -0.15370
F1296       F  0.81040006  0.25456797  0.91624923    -0.13010
C1297       C  0.67012605  0.12657508  0.90756809     0.25000
C1298       C  0.62834132  0.11403485  0.90952273    -0.23100
C1299       C  0.61438128  0.12925617  0.93971215     0.19910
C1300       C  0.64200654  0.15811792  0.96618511     0.24950
C1301       C  0.68402362  0.17224413  0.96273864    -0.23050
C1302       C  0.69763411  0.15534791  0.93384870     0.19850
F1303       F  0.73797434  0.16756038  0.93044515    -0.13010
F1304       F  0.68477897  0.11271596  0.87879800    -0.15370
F1305       F  0.62794844  0.17359254  0.49394035    -0.15370
F1306       F  0.57403546  0.11619984  0.94364501    -0.13010
C1307       C  0.80233369  0.31994787  0.71115857     0.25000
C1308       C  0.81211151  0.30766963  0.67598479    -0.23100
C1309       C  0.85318064  0.32837625  0.66307303     0.19910
C1310       C  0.88380806  0.35970903  0.68565530     0.24950
C1311       C  0.87405594  0.36983067  0.72201898    -0.23050
C1312       C  0.83296969  0.34953442  0.73442825     0.19850
F1313       F  0.82219082  0.35800490  0.76955065    -0.13010
F1314       F  0.76293552  0.30299334  0.72343209    -0.15370
F1315       F  0.92323179  0.37813621  0.67323548    -0.15370
F1316       F  0.86410491  0.31687207  0.62973915    -0.13010
C1317       C  0.61921409  0.12831876  0.70259518     0.25000
C1318       C  0.63144516  0.11389797  0.73475448    -0.23100
C1319       C  0.67296978  0.12556899  0.73863890     0.19910
C1320       C  0.70190929  0.15245651  0.71193315     0.24950
C1321       C  0.69007212  0.16838663  0.68071494    -0.23050
C1322       C  0.64829644  0.15530550  0.67571145     0.19850
F1323       F  0.63588471  0.17026386  0.64597369    -0.13010
F1324       F  0.57920185  0.11629991  0.69717097    -0.15370
F1325       F  0.74183833  0.16384339  0.71721362    -0.15370
F1326       F  0.68597158  0.11255768  0.76954106    -0.13010
C1327       C  0.72163398  0.70232787  0.15678102     0.04540
C1328       C  0.72039953  0.70153982  0.11573805    -0.11610
C1329       C  0.74824196  0.73593662  0.09347270     0.02040
C1330       C  0.77665283  0.77134120  0.11402474    -0.10140
C1331       C  0.77997998  0.77142739  0.15480472     0.04530
C1332       C  0.75238911  0.73665405  0.17579433    -0.09560
H1333       H  0.69779955  0.67372341  0.10195746     0.10120
H1334       H  0.79607346  0.79961267  0.09890300     0.07650
H1335       H  0.75429703  0.73646940  0.20737562     0.07500
C1336       C  0.71460369  0.70666599  0.48661922     0.04540
C1337       C  0.71435147  0.70549479  0.02766484    -0.11610
C1338       C  0.74777473  0.73575865  0.04935098     0.02040
C1339       C  0.78176257  0.76596739  0.02815075    -0.10140
C1340       C  0.78053680  0.76929162  0.48744435     0.04530
C1341       C  0.74608736  0.74011826  0.46726545    -0.09560
H1342       H  0.68832859  0.68052948  0.04184769     0.10120
H1343       H  0.80992984  0.78672336  0.04273288     0.07650
H1344       H  0.74410637  0.74246478  0.43586011     0.07500
C1345       C  0.75235719  0.98503610  0.15538655     0.04540
C1346       C  0.75237921  0.98417357  0.11443948    -0.11610
C1347       C  0.71777537  0.97818006  0.09304419     0.02040
C1348       C  0.68307124  0.97220369  0.11439880    -0.10140
C1349       C  0.68395280  0.97592228  0.15522610     0.04530
C1350       C  0.71912582  0.98284777  0.17537552    -0.09560
H1351       H  0.77947099  0.98791771  0.10005147     0.10120
H1352       H  0.65456444  0.96353483  0.09979914     0.07650
H1353       H  0.72048030  0.98550237  0.20694493     0.07500
C1354       C  0.74288529  0.96848347  0.48605698     0.04540
C1355       C  0.74502425  0.97066275  0.02702997    -0.11610
C1356       C  0.71688920  0.97695642  0.04901062     0.02040
C1357       C  0.68746079  0.98221848  0.02829719    -0.10140
C1358       C  0.68332010  0.97724981  0.48768257     0.04530
C1359       C  0.71102226  0.97001792  0.46700299    -0.09560
H1360       H  0.76841053  0.96679250  0.04104233     0.10120
H1361       H  0.66780155  0.99083873  0.04324916     0.07650
H1362       H  0.70835572  0.96629247  0.43556817     0.07500
C1363       C  0.47727951  0.73487987  0.15570992     0.04540
C1364       C  0.48123854  0.73729849  0.11476976    -0.11610
C1365       C  0.48233143  0.70603402  0.09297133     0.02040
C1366       C  0.48093504  0.67320683  0.11435016    -0.10140
C1367       C  0.47883667  0.67155955  0.15525297     0.04530
C1368       C  0.47599225  0.70200518  0.17545818    -0.09560
H1369       H  0.48266206  0.76342855  0.10075394     0.10120
H1370       H  0.48157284  0.64831490  0.10007880     0.07650
H1371       H  0.47316522  0.70039392  0.20704050     0.07500
C1372       C  0.97520177  0.73221927  0.48506522     0.04540
C1373       C  0.97791821  0.73494887  0.02610110    -0.11610
C1374       C  0.98302717  0.70623387  0.04857833     0.02040
C1375       C  0.98836449  0.67691626  0.02775671    -0.10140
C1376       C  0.98251733  0.67206041  0.48727883     0.04530
C1377       C  0.97399896  0.69878096  0.46667969    -0.09560
H1378       H  0.97686616  0.76004677  0.03954505     0.10120
H1379       H  0.99797994  0.65790630  0.04214036     0.07650
H1380       H  0.96830982  0.69484181  0.43550944     0.07500
O1381       O  0.89220623  0.00978617  0.27941275    -0.86770
C1382       C  0.60046680  0.58733768  0.37859367     1.13270
O1383       O  0.93859956  0.97263142  0.32096071    -1.34580
O1384       O  0.57429530  0.59468387  0.27679795    -0.88260
O1385       O  0.85841386  0.94202748  0.27509476    -0.88920
O1386       O  0.93814232  0.92986927  0.23764774    -0.77740
O1387       O  0.98287710  0.55245520  0.28531841    -0.99830
C1388       C  0.55411126  0.97016090  0.24966151     1.23310
O1389       O  0.97914766  0.92835131  0.32074219    -1.34730
Mn1390     Mn  0.97997797  0.97086209  0.36376522     1.82050
O1391       O  0.52355049  0.97191937  0.23814222    -0.76820
O1392       O  0.60680597  0.55917290  0.27884526    -0.86220
C1393       C  0.55337607  0.96941326  0.39254459     1.14400
C1394       C  0.60193803  0.58740883  0.26490327     1.09120
O1395       O  0.93607122  0.92880772  0.40339749    -0.77760
O1396       O  0.52362344  0.51315766  0.32131023    -1.31450
O1397       O  0.89923112  0.89300953  0.35658762    -0.96970
C1398       C  0.97653825  0.85155488  0.26349649     1.07840
Mn1399     Mn  0.58038346  0.51464065  0.32166153     1.48570
O1400       O  0.94303025  0.84586107  0.27774507    -0.86170
Mn1401     Mn  0.88035406  0.91952231  0.31951389     1.49560
O1402       O  0.89220650  0.00744282  0.36716615    -0.90040
C1403       C  0.98231981  0.54697793  0.25024261     1.21030
C1404       C  0.86239459  0.97286835  0.37746561     1.13090
Mn1405     Mn  0.98074273  0.97185952  0.27824931     1.80970
O1406       O  0.55826764  0.96859011  0.35751983    -0.95200
Mn1407     Mn  0.93702816  0.52771603  0.32251234     1.49260
C1408       C  0.86495131  0.97685788  0.26394216     1.09610
Mn1409     Mn  0.53236611  0.92330260  0.32035111     1.49930
C1410       C  0.97717040  0.85122152  0.37728198     1.12510
O1411       O  0.90050065  0.89354677  0.28389592    -1.01000
O1412       O  0.60552381  0.55886432  0.36557195    -0.90660
C1413       C  0.90595221  0.89890822  0.24889596     1.23790
O1414       O  0.55882150  0.96945884  0.28470618    -1.01390
O1415       O  0.57378011  0.59500562  0.36510385    -0.88780
O1416       O  0.51129518  0.87807832  0.36318464    -0.88390
O1417       O  0.85556278  0.93960898  0.36214277    -0.88420
Mn1418     Mn  0.52920717  0.57152309  0.32118970     1.47860
O1419       O  0.52164855  0.96902762  0.40394886    -0.76890
C1420       C  0.90447679  0.89763720  0.39166599     1.16850
O1421       O  0.98113743  0.51503087  0.23868805    -0.75620
O1422       O  0.98128089  0.51369946  0.40432101    -0.75230
Mn1423     Mn  0.92400541  0.87154869  0.32091912     1.51060
O1424       O  0.51125286  0.87932420  0.27565289    -0.87590
O1425       O  0.98359810  0.55155346  0.35804710    -0.95120
O1426       O  0.94307237  0.84630131  0.36552090    -0.90130
C1427       C  0.98385226  0.54636310  0.39305106     1.14630
C1428       C  0.96992063  0.60003044  0.48042462     0.25000
C1429       C  0.98664266  0.64013617  0.46576572    -0.23100
C1430       C  0.00614259  0.64938684  0.42907805     0.19910
C1431       C  0.00527970  0.61887369  0.40598975     0.24950
C1432       C  0.98725181  0.57849496  0.41984258    -0.23050
C1433       C  0.97122154  0.56971993  0.45798744     0.19850
F1434       F  0.95434114  0.53129897  0.47255163    -0.13010
F1435       F  0.95041156  0.58950289  0.01548357    -0.15370
F1436       F  0.52266333  0.62922410  0.36993192    -0.15370
F1437       F  0.52621635  0.68819670  0.41522679    -0.13010
C1438       C  0.95072824  0.78109044  0.46588923     0.25000
C1439       C  0.97700294  0.76531005  0.46007994    -0.23100
C1440       C  0.00465748  0.78007235  0.42843467     0.19910
C1441       C  0.00476759  0.80826414  0.40221386     0.24950
C1442       C  0.97763971  0.82304809  0.40706187    -0.23050
C1443       C  0.95102558  0.80973467  0.43951179     0.19850
F1444       F  0.92575166  0.82479523  0.44597642    -0.13010
F1445       F  0.92392450  0.76787070  0.99623484    -0.15370
F1446       F  0.03047958  0.81987906  0.37099670    -0.15370
F1447       F  0.03168766  0.76693491  0.42261940    -0.13010
C1448       C  0.95918314  0.56730636  0.18956922     0.25000
C1449       C  0.98349170  0.57809982  0.22338144    -0.23100
C1450       C  0.50694126  0.61949925  0.23359086     0.19910
C1451       C  0.50676951  0.64951540  0.21032321     0.24950
C1452       C  0.98111299  0.63895559  0.17747696    -0.23050
C1453       C  0.95741639  0.59744356  0.16713233     0.19850
F1454       F  0.93114795  0.58583242  0.13649651    -0.13010
F1455       F  0.93517484  0.52751543  0.17971377    -0.15370
F1456       F  0.53194072  0.68916942  0.22008529    -0.15370
F1457       F  0.53022847  0.63120881  0.26638083    -0.13010
C1458       C  0.50603960  0.80733366  0.17793669     0.25000
C1459       C  0.97452015  0.76640658  0.17894838    -0.23100
C1460       C  0.94213226  0.75465211  0.20556953     0.19910
C1461       C  0.94216709  0.78269435  0.23198451     0.24950
C1462       C  0.97474135  0.82329106  0.23250115    -0.23050
C1463       C  0.50614160  0.83552948  0.20447135     0.19850
F1464       F  0.53711711  0.87468815  0.20284956    -0.13010
F1465       F  0.53783004  0.81955227  0.15267947    -0.15370
F1466       F  0.91128395  0.76936972  0.25847731    -0.15370
F1467       F  0.91089462  0.71545262  0.20678310    -0.13010
C1468       C  0.79168728  0.93891296  0.40568033     0.25000
C1469       C  0.83288714  0.97042729  0.40759289    -0.23100
C1470       C  0.84468523  0.99932749  0.43776439     0.19910
C1471       C  0.81589926  0.99710322  0.46503880     0.24950
C1472       C  0.77457959  0.96643455  0.46212450    -0.23050
C1473       C  0.76295832  0.93703679  0.43253631     0.19850
F1474       F  0.72334009  0.90699459  0.42893124    -0.13010
F1475       F  0.77852575  0.91097142  0.37645822    -0.15370
F1476       F  0.82798480  0.52628325  0.99296989    -0.15370
F1477       F  0.88388142  0.53014326  0.44052741    -0.13010
C1478       C  0.65860643  0.99897836  0.42974855     0.25000
C1479       C  0.65016061  0.97935317  0.46625894    -0.23100
C1480       C  0.60940899  0.95903136  0.48008948     0.19910
C1481       C  0.57779832  0.95720960  0.45704384     0.24950
C1482       C  0.58620626  0.97412750  0.41927421    -0.23050
C1483       C  0.62703272  0.99494286  0.40597336     0.19850
F1484       F  0.63674918  0.51097766  0.36940076    -0.13010
F1485       F  0.69763292  0.52171729  0.41652553    -0.15370
F1486       F  0.53877316  0.93665935  0.47060347    -0.15370
F1487       F  0.59975078  0.93907937  0.01489869    -0.13010
C1488       C  0.78013824  0.94607196  0.18874929     0.25000
C1489       C  0.78483141  0.98388432  0.17818617    -0.23100
C1490       C  0.81743781  0.51960957  0.19353696     0.19910
C1491       C  0.84449931  0.51755427  0.22014520     0.24950
C1492       C  0.83899330  0.97940509  0.23236756    -0.23100
C1493       C  0.80679728  0.94373881  0.21551395     0.19850
F1494       F  0.79976333  0.90628387  0.22592300    -0.13010
F1495       F  0.74835139  0.91111723  0.17445923    -0.15370
F1496       F  0.87512478  0.55302097  0.23484430    -0.15370
F1497       F  0.82211898  0.55643490  0.18386353    -0.13010
C1498       C  0.60541541  0.94906489  0.23549851     0.25000
C1499       C  0.58420897  0.96876561  0.22301829    -0.23100
C1500       C  0.59428370  0.98891034  0.18673689     0.19910
C1501       C  0.62629647  0.99086580  0.16423616     0.24950
C1502       C  0.64791842  0.97161502  0.17716779    -0.23050
C1503       C  0.63594761  0.94948803  0.21241134     0.19850
F1504       F  0.65368120  0.92792709  0.22467196    -0.13010
F1505       F  0.59635224  0.92880644  0.27014806    -0.15370
F1506       F  0.63733827  0.01322057  0.13078903    -0.15370
F1507       F  0.57486185  0.00871269  0.17414033    -0.13010
C1508       C  0.83604520  0.84304647  0.47868130     0.25000
C1509       C  0.81537949  0.80233584  0.46530708    -0.23100
C1510       C  0.82662836  0.79355081  0.42898524     0.19910
C1511       C  0.85475982  0.82471137  0.40514257     0.24950
C1512       C  0.87523774  0.86537452  0.41818614    -0.23050
C1513       C  0.86639551  0.87419201  0.45558452     0.19850
F1514       F  0.88536967  0.91315628  0.46882134    -0.13010
F1515       F  0.82569521  0.85309464  0.01319400    -0.15370
F1516       F  0.86202752  0.81470143  0.36912467    -0.15370
F1517       F  0.81040005  0.75456798  0.41624923    -0.13010
C1518       C  0.67012605  0.62657507  0.40756810     0.25000
C1519       C  0.62834131  0.61403485  0.40952273    -0.23100
C1520       C  0.61438128  0.62925618  0.43971215     0.19910
C1521       C  0.64200653  0.65811793  0.46618510     0.24950
C1522       C  0.68402361  0.67224413  0.46273864    -0.23050
C1523       C  0.69763410  0.65534791  0.43384871     0.19850
F1524       F  0.73797433  0.66756037  0.43044517    -0.13010
F1525       F  0.68477896  0.61271595  0.37879802    -0.15370
F1526       F  0.62794844  0.67359254  0.99394036    -0.15370
F1527       F  0.57403546  0.61619986  0.44364500    -0.13010
C1528       C  0.80233369  0.81994788  0.21115857     0.25000
C1529       C  0.81211151  0.80766964  0.17598479    -0.23100
C1530       C  0.85318064  0.82837625  0.16307304     0.19910
C1531       C  0.88380806  0.85970903  0.18565531     0.24950
C1532       C  0.87405594  0.86983067  0.22201898    -0.23050
C1533       C  0.83296969  0.84953442  0.23442825     0.19850
F1534       F  0.82219082  0.85800491  0.26955065    -0.13010
F1535       F  0.76293552  0.80299335  0.22343209    -0.15370
F1536       F  0.92323179  0.87813621  0.17323548    -0.15370
F1537       F  0.86410490  0.81687207  0.12973915    -0.13010
C1538       C  0.61921409  0.62831875  0.20259518     0.25000
C1539       C  0.63144516  0.61389797  0.23475448    -0.23100
C1540       C  0.67296978  0.62556900  0.23863890     0.19910
C1541       C  0.70190929  0.65245652  0.21193316     0.24950
C1542       C  0.69007211  0.66838663  0.18071494    -0.23050
C1543       C  0.64829644  0.65530550  0.17571145     0.19850
F1544       F  0.63588471  0.67026385  0.14597368    -0.13010
F1545       F  0.57920184  0.61629989  0.19717096    -0.15370
F1546       F  0.74183833  0.66384340  0.21721363    -0.15370
F1547       F  0.68597158  0.61255769  0.26954106    -0.13010
C1548       C  0.72163398  0.70232787  0.65678101     0.04540
C1549       C  0.72039952  0.70153982  0.61573804    -0.11610
C1550       C  0.74824196  0.73593662  0.59347270     0.02040
C1551       C  0.77665283  0.77134120  0.61402474    -0.10140
C1552       C  0.77997998  0.77142739  0.65480472     0.04530
C1553       C  0.75238911  0.73665404  0.67579433    -0.09560
H1554       H  0.69779954  0.67372341  0.60195746     0.10120
H1555       H  0.79607346  0.79961268  0.59890300     0.07650
H1556       H  0.75429703  0.73646940  0.70737562     0.07500
C1557       C  0.71460370  0.70666599  0.98661923     0.04540
C1558       C  0.71435146  0.70549479  0.52766484    -0.11610
C1559       C  0.74777472  0.73575865  0.54935097     0.02040
C1560       C  0.78176257  0.76596740  0.52815074    -0.10140
C1561       C  0.78053681  0.76929161  0.98744435     0.04530
C1562       C  0.74608737  0.74011826  0.96726545    -0.09560
H1563       H  0.68832858  0.68052949  0.54184769     0.10120
H1564       H  0.80992983  0.78672337  0.54273288     0.07650
H1565       H  0.74410638  0.74246478  0.93586011     0.07500
C1566       C  0.75235718  0.98503609  0.65538655     0.04540
C1567       C  0.75237921  0.98417356  0.61443948    -0.11610
C1568       C  0.71777536  0.97818006  0.59304420     0.02040
C1569       C  0.68307124  0.97220369  0.61439880    -0.10140
C1570       C  0.68395280  0.97592228  0.65522610     0.04530
C1571       C  0.71912582  0.98284776  0.67537552    -0.09560
H1572       H  0.77947099  0.98791771  0.60005147     0.10120
H1573       H  0.65456444  0.96353484  0.59979914     0.07650
H1574       H  0.72048030  0.98550236  0.70694493     0.07500
C1575       C  0.74288529  0.96848347  0.98605698     0.04540
C1576       C  0.74502425  0.97066275  0.52702997    -0.11610
C1577       C  0.71688920  0.97695641  0.54901063     0.02040
C1578       C  0.68746078  0.98221848  0.52829719    -0.10140
C1579       C  0.68332010  0.97724981  0.98768257     0.04530
C1580       C  0.71102226  0.97001793  0.96700299    -0.09560
H1581       H  0.76841053  0.96679250  0.54104233     0.10120
H1582       H  0.66780154  0.99083872  0.54324917     0.07650
H1583       H  0.70835572  0.96629248  0.93556817     0.07500
C1584       C  0.47727953  0.73487988  0.65570992     0.04540
C1585       C  0.48123855  0.73729850  0.61476976    -0.11610
C1586       C  0.48233145  0.70603403  0.59297133     0.02040
C1587       C  0.48093509  0.67320686  0.61435016    -0.10140
C1588       C  0.47883670  0.67155957  0.65525297     0.04530
C1589       C  0.47599227  0.70200519  0.67545818    -0.09560
H1590       H  0.48266207  0.76342855  0.60075394     0.10120
H1591       H  0.48157290  0.64831493  0.60007880     0.07650
H1592       H  0.47316524  0.70039393  0.70704050     0.07500
C1593       C  0.97520176  0.73221926  0.98506522     0.04540
C1594       C  0.97791822  0.73494888  0.52610110    -0.11610
C1595       C  0.98302719  0.70623388  0.54857832     0.02040
C1596       C  0.98836450  0.67691627  0.52775670    -0.10140
C1597       C  0.98251732  0.67206040  0.98727883     0.04530
C1598       C  0.97399895  0.69878096  0.96667970    -0.09560
H1599       H  0.97686618  0.76004678  0.53954505     0.10120
H1600       H  0.99797995  0.65790631  0.54214036     0.07650
H1601       H  0.96830982  0.69484181  0.93550944     0.07500
O1602       O  0.89220623  0.00978616  0.77941275    -0.86770
C1603       C  0.60046681  0.58733768  0.87859367     1.13270
O1604       O  0.93859956  0.97263142  0.82096071    -1.34580
O1605       O  0.57429531  0.59468387  0.77679796    -0.88260
O1606       O  0.85841386  0.94202748  0.77509476    -0.88920
O1607       O  0.93814232  0.92986927  0.73764774    -0.77740
O1608       O  0.98287711  0.55245521  0.78531841    -0.99830
C1609       C  0.55411126  0.97016090  0.74966151     1.23310
O1610       O  0.97914767  0.92835131  0.82074219    -1.34730
Mn1611     Mn  0.97997798  0.97086209  0.86376522     1.82050
O1612       O  0.52355049  0.97191937  0.73814222    -0.76820
O1613       O  0.60680597  0.55917290  0.77884526    -0.86220
C1614       C  0.55337607  0.96941326  0.89254460     1.14400
C1615       C  0.60193803  0.58740884  0.76490327     1.09120
O1616       O  0.93607123  0.92880772  0.90339750    -0.77760
O1617       O  0.52362344  0.51315766  0.82131023    -1.31450
O1618       O  0.89923113  0.89300953  0.85658762    -0.96970
C1619       C  0.97653826  0.85155488  0.76349650     1.07840
Mn1620     Mn  0.58038347  0.51464065  0.82166153     1.48570
O1621       O  0.94303026  0.84586107  0.77774507    -0.86170
Mn1622     Mn  0.88035407  0.91952230  0.81951389     1.49560
O1623       O  0.89220649  0.00744282  0.86716615    -0.90040
C1624       C  0.98231982  0.54697793  0.75024261     1.21030
C1625       C  0.86239459  0.97286834  0.87746561     1.13090
Mn1626     Mn  0.98074273  0.97185952  0.77824931     1.80970
O1627       O  0.55826764  0.96859011  0.85751984    -0.95200
Mn1628     Mn  0.93702817  0.52771603  0.82251234     1.49260
C1629       C  0.86495131  0.97685787  0.76394216     1.09610
Mn1630     Mn  0.53236611  0.92330260  0.82035111     1.49930
C1631       C  0.97717041  0.85122152  0.87728199     1.12510
O1632       O  0.90050066  0.89354677  0.78389592    -1.01000
O1633       O  0.60552381  0.55886432  0.86557195    -0.90660
C1634       C  0.90595221  0.89890822  0.74889596     1.23790
O1635       O  0.55882150  0.96945884  0.78470619    -1.01390
O1636       O  0.57378011  0.59500562  0.86510385    -0.88780
O1637       O  0.51129518  0.87807832  0.86318465    -0.88390
O1638       O  0.85556278  0.93960897  0.86214277    -0.88420
Mn1639     Mn  0.52920717  0.57152309  0.82118970     1.47860
O1640       O  0.52164855  0.96902762  0.90394886    -0.76890
C1641       C  0.90447679  0.89763719  0.89166599     1.16850
O1642       O  0.98113743  0.51503088  0.73868804    -0.75620
O1643       O  0.98128089  0.51369946  0.90432101    -0.75230
Mn1644     Mn  0.92400542  0.87154869  0.82091912     1.51060
O1645       O  0.51125286  0.87932420  0.77565289    -0.87590
O1646       O  0.98359810  0.55155346  0.85804710    -0.95120
O1647       O  0.94307238  0.84630130  0.86552090    -0.90130
C1648       C  0.98385226  0.54636310  0.89305106     1.14630
C1649       C  0.96992062  0.60003043  0.98042462     0.25000
C1650       C  0.98664265  0.64013616  0.96576572    -0.23100
C1651       C  0.00614258  0.64938683  0.92907805     0.19910
C1652       C  0.00527969  0.61887369  0.90598976     0.24950
C1653       C  0.98725181  0.57849495  0.91984258    -0.23050
C1654       C  0.97122154  0.56971992  0.95798744     0.19850
F1655       F  0.95434114  0.53129897  0.97255163    -0.13010
F1656       F  0.95041156  0.58950290  0.51548357    -0.15370
F1657       F  0.52266333  0.62922411  0.86993193    -0.15370
F1658       F  0.52621635  0.68819670  0.91522679    -0.13010
C1659       C  0.95072824  0.78109043  0.96588923     0.25000
C1660       C  0.97700293  0.76531004  0.96007994    -0.23100
C1661       C  0.00465747  0.78007234  0.92843468     0.19910
C1662       C  0.00476759  0.80826414  0.90221386     0.24950
C1663       C  0.97763971  0.82304809  0.90706188    -0.23050
C1664       C  0.95102558  0.80973467  0.93951180     0.19850
F1665       F  0.92575167  0.82479523  0.94597642    -0.13010
F1666       F  0.92392450  0.76787070  0.49623483    -0.15370
F1667       F  0.03047958  0.81987905  0.87099670    -0.15370
F1668       F  0.03168765  0.76693490  0.92261940    -0.13010
C1669       C  0.95918316  0.56730637  0.68956921     0.25000
C1670       C  0.98349171  0.57809983  0.72338144    -0.23100
C1671       C  0.50694127  0.61949926  0.73359088     0.19910
C1672       C  0.50676952  0.64951541  0.71032323     0.24950
C1673       C  0.98111301  0.63895560  0.67747696    -0.23050
C1674       C  0.95741642  0.59744357  0.66713232     0.19850
F1675       F  0.93114799  0.58583244  0.63649649    -0.13010
F1676       F  0.93517487  0.52751544  0.67971375    -0.15370
F1677       F  0.53194072  0.68916943  0.72008532    -0.15370
F1678       F  0.53022846  0.63120881  0.76638085    -0.13010
C1679       C  0.50603961  0.80733367  0.67793669     0.25000
C1680       C  0.97452017  0.76640659  0.67894838    -0.23100
C1681       C  0.94213228  0.75465211  0.70556953     0.19910
C1682       C  0.94216711  0.78269435  0.73198451     0.24950
C1683       C  0.97474136  0.82329106  0.73250116    -0.23050
C1684       C  0.50614160  0.83552949  0.70447135     0.19850
F1685       F  0.53711711  0.87468816  0.70284956    -0.13010
F1686       F  0.53783005  0.81955229  0.65267946    -0.15370
F1687       F  0.91128397  0.76936972  0.75847731    -0.15370
F1688       F  0.91089464  0.71545262  0.70678310    -0.13010
C1689       C  0.79168728  0.93891296  0.90568032     0.25000
C1690       C  0.83288714  0.97042729  0.90759289    -0.23100
C1691       C  0.84468524  0.99932748  0.93776439     0.19910
C1692       C  0.81589926  0.99710321  0.96503880     0.24950
C1693       C  0.77457959  0.96643455  0.96212449    -0.23050
C1694       C  0.76295831  0.93703679  0.93253630     0.19850
F1695       F  0.72334008  0.90699460  0.92893122    -0.13010
F1696       F  0.77852575  0.91097143  0.87645821    -0.15370
F1697       F  0.82798480  0.52628327  0.49296988    -0.15370
F1698       F  0.88388142  0.53014325  0.94052742    -0.13010
C1699       C  0.65860643  0.99897836  0.92974855     0.25000
C1700       C  0.65016062  0.97935317  0.96625894    -0.23100
C1701       C  0.60940900  0.95903136  0.98008948     0.19910
C1702       C  0.57779832  0.95720960  0.95704385     0.24950
C1703       C  0.58620626  0.97412750  0.91927421    -0.23050
C1704       C  0.62703272  0.99494287  0.90597336     0.19850
F1705       F  0.63674919  0.51097767  0.86940077    -0.13010
F1706       F  0.69763292  0.52171729  0.91652554    -0.15370
F1707       F  0.53877316  0.93665936  0.97060347    -0.15370
F1708       F  0.59975077  0.93907937  0.51489869    -0.13010
C1709       C  0.78013822  0.94607195  0.68874931     0.25000
C1710       C  0.78483141  0.98388430  0.67818617    -0.23100
C1711       C  0.81743783  0.51960957  0.69353693     0.19910
C1712       C  0.84449934  0.51755427  0.72014517     0.24950
C1713       C  0.83899329  0.97940507  0.73236756    -0.23100
C1714       C  0.80679726  0.94373879  0.71551397     0.19850
F1715       F  0.79976329  0.90628386  0.72592303    -0.13010
F1716       F  0.74835135  0.91111722  0.67445927    -0.15370
F1717       F  0.87512483  0.55302097  0.73484425    -0.15370
F1718       F  0.82211904  0.55643491  0.68386347    -0.13010
C1719       C  0.60541541  0.94906489  0.73549851     0.25000
C1720       C  0.58420897  0.96876561  0.72301829    -0.23100
C1721       C  0.59428371  0.98891034  0.68673690     0.19910
C1722       C  0.62629648  0.99086581  0.66423617     0.24950
C1723       C  0.64791842  0.97161502  0.67716779    -0.23050
C1724       C  0.63594761  0.94948803  0.71241134     0.19850
F1725       F  0.65368119  0.92792708  0.72467196    -0.13010
F1726       F  0.59635224  0.92880644  0.77014806    -0.15370
F1727       F  0.63733828  0.01322058  0.63078904    -0.15370
F1728       F  0.57486186  0.00871270  0.67414034    -0.13010
C1729       C  0.83604521  0.84304647  0.97868131     0.25000
C1730       C  0.81537950  0.80233583  0.96530709    -0.23100
C1731       C  0.82662837  0.79355081  0.92898524     0.19910
C1732       C  0.85475983  0.82471137  0.90514257     0.24950
C1733       C  0.87523774  0.86537452  0.91818615    -0.23050
C1734       C  0.86639551  0.87419201  0.95558452     0.19850
F1735       F  0.88536968  0.91315628  0.96882135    -0.13010
F1736       F  0.82569520  0.85309465  0.51319399    -0.15370
F1737       F  0.86202752  0.81470143  0.86912467    -0.15370
F1738       F  0.81040006  0.75456797  0.91624924    -0.13010
C1739       C  0.67012605  0.62657508  0.90756809     0.25000
C1740       C  0.62834132  0.61403485  0.90952273    -0.23100
C1741       C  0.61438128  0.62925618  0.93971215     0.19910
C1742       C  0.64200654  0.65811793  0.96618510     0.24950
C1743       C  0.68402362  0.67224413  0.96273864    -0.23050
C1744       C  0.69763411  0.65534791  0.93384870     0.19850
F1745       F  0.73797434  0.66756037  0.93044516    -0.13010
F1746       F  0.68477897  0.61271595  0.87879801    -0.15370
F1747       F  0.62794844  0.67359254  0.49394035    -0.15370
F1748       F  0.57403546  0.61619986  0.94364500    -0.13010
C1749       C  0.80233369  0.81994787  0.71115857     0.25000
C1750       C  0.81211151  0.80766963  0.67598479    -0.23100
C1751       C  0.85318064  0.82837625  0.66307303     0.19910
C1752       C  0.88380806  0.85970903  0.68565531     0.24950
C1753       C  0.87405594  0.86983067  0.72201898    -0.23050
C1754       C  0.83296969  0.84953442  0.73442825     0.19850
F1755       F  0.82219082  0.85800490  0.76955065    -0.13010
F1756       F  0.76293552  0.80299334  0.72343209    -0.15370
F1757       F  0.92323179  0.87813621  0.67323548    -0.15370
F1758       F  0.86410491  0.81687207  0.62973915    -0.13010
C1759       C  0.61921409  0.62831877  0.70259518     0.25000
C1760       C  0.63144516  0.61389798  0.73475447    -0.23100
C1761       C  0.67296978  0.62556899  0.73863889     0.19910
C1762       C  0.70190929  0.65245651  0.71193314     0.24950
C1763       C  0.69007211  0.66838663  0.68071493    -0.23050
C1764       C  0.64829644  0.65530551  0.67571145     0.19850
F1765       F  0.63588471  0.67026388  0.64597370    -0.13010
F1766       F  0.57920184  0.61629992  0.69717098    -0.15370
F1767       F  0.74183833  0.66384338  0.71721361    -0.15370
F1768       F  0.68597157  0.61255767  0.76954104    -0.13010
loop_ 
_geom_bond_atom_site_label_1 
_geom_bond_atom_site_label_2 
_geom_bond_distance 
_geom_bond_site_symmetry_2 
_ccdc_geom_bond_type 
C1            C2   1.405       .  A
C1            C6   1.398       .  A
C1          C216   1.485       .  S
C2            C3   1.417       .  A
C2            H7   1.078       .  S
C3            C4   1.417       .  A
C3           C12   1.509       .  S
C4            C5   1.400       .  A
C4            H8   1.079       .  S
C5            C6   1.399       .  A
C5          C203   1.490       .  S
C6            H9   1.083       .  S
C10          C15   1.395       .  A
C10         C232   1.404       .  A
C10         C196   1.483       .  S
C11          C12   1.419       .  A
C11         C231   1.404   1_554  A
C11          H16   1.078       .  S
C12          C13   1.417       .  A
C13         C235   1.401   1_554  A
C13          H17   1.079       .  S
C14          C15   1.398       .  A
C14         C234   1.401       .  A
C14         C183   1.489       .  S
C15          H18   1.084       .  S
C19          C20   1.401       .  A
C19          C24   1.395       .  A
C19         C163   1.474       .  S
C20          C21   1.415       .  A
C20          H25   1.079       .  S
C21          C22   1.416       .  A
C21          C30   1.507       .  S
C22          C23   1.403       .  A
C22          H26   1.079       .  S
C23          C24   1.402       .  A
C23         C176   1.490       .  S
C24          H27   1.084       .  S
C28          C33   1.397       .  A
C28         C250   1.404       .  A
C28         C146   1.485       .  S
C29          C30   1.417       .  A
C29         C249   1.404   1_554  A
C29          H34   1.079       .  S
C30          C31   1.416       .  A
C31         C253   1.401   1_554  A
C31          H35   1.079       .  S
C32          C33   1.400       .  A
C32         C252   1.401       .  A
C32         C153   1.489       .  S
C33          H36   1.083       .  S
C37          C38   1.406       .  A
C37          C42   1.397       .  A
C37        C1017   1.484       .  S
C38          C39   1.420       .  A
C38          H43   1.077       .  S
C39          C40   1.421       .  A
C39         C932   1.519       .  S
C40          C41   1.401       .  A
C40          H44   1.075       .  S
C41          C42   1.397       .  A
C41        C1010   1.490       .  S
C42          H45   1.084       .  S
C46          C51   1.397       .  A
C46         C268   1.408       .  A
C46         C113   1.491       .  S
C47          C48   1.423       .  A
C47         C267   1.408   1_554  A
C47          H52   1.077       .  S
C48          C49   1.419       .  A
C48         C923   1.519       .  S
C49         C271   1.400   1_554  A
C49          H53   1.076       .  S
C50          C51   1.398       .  A
C50         C270   1.400       .  A
C50         C103   1.492       .  S
C51          H54   1.083       .  S
O55          C82   1.270       .  A
O55        Mn523   2.088       .  S
C56         C193   1.480       .  S
C56          O89   1.269       .  A
C56          O86   1.269       .  A
O57         Mn64   2.169       .  S
O57         Mn75   2.111       .  S
O57         Mn79   2.172       .  S
O57        Mn523   2.121       .  S
O58          C68   1.274       .  A
O58         Mn92   2.115       .  S
O59          C82   1.274       .  A
O59         Mn75   2.106       .  S
O60          C87   1.254       .  A
O60         Mn79   2.120       .  S
O61         Mn81   1.966       .  S
O61        Mn976   1.958       .  S
O61          C77   1.216       .  S
C62         C173   1.479       .  S
C62          O65   1.254       .  A
C62          O88   1.214       .  S
O63         Mn64   2.174       .  S
O63         Mn97   2.117       .  S
O63         Mn79   2.176       .  S
O63        Mn967   2.115       .  S
Mn64         O69   2.114       .  S
Mn64        O977   2.119       .  S
Mn64        O538   2.120       .  S
Mn64       O1396   2.176       .  S
O65        Mn963   2.120   1_455  S
O66          C68   1.267       .  A
O66         Mn73   2.072       .  S
C67         C156   1.479       .  S
C67          O93   1.254       .  A
C67          O80   1.215       .  S
C68         C213   1.479       .  S
O69          C94   1.253       .  A
O70         Mn73   2.119       .  S
O70         Mn92   2.116       .  S
O70       Mn1390   2.176   1_445  S
O70       Mn1405   2.171   1_445  S
O71         Mn75   1.962       .  S
O71         Mn97   1.948       .  S
O71          C94   1.215       .  S
C72         C136   1.486       .  S
C72          O74   1.270       .  A
C72         O982   1.273       .  A
Mn73         O86   2.094       .  S
Mn73        O530   1.951   1_545  S
Mn73        O522   1.944   1_545  S
O74         Mn97   2.087       .  S
Mn75         O91   2.075       .  S
Mn75         O85   1.947       .  S
O76          C78   1.276       .  A
O76        Mn523   2.116       .  S
C77         C123   1.478       .  S
C77          O95   1.255       .  A
C78         C143   1.486       .  S
C78          O91   1.268       .  A
Mn79        O949   2.120       .  S
Mn79        O537   2.117       .  S
Mn79       O1396   2.171       .  S
O80         Mn83   1.962       .  S
O80        Mn515   1.944       .  S
Mn81        O497   2.088       .  S
Mn81        O518   2.116       .  S
Mn81        O499   2.121   1_545  S
Mn81         O99   1.951       .  S
C82         C166   1.495       .  S
Mn83         O90   2.084       .  S
Mn83         O98   2.105       .  S
Mn83        O947   2.115   1_455  S
Mn83         O88   1.946       .  S
C84         C116   1.482       .  S
C84         O100   1.272       .  A
C84         O974   1.270       .  A
O85         Mn97   1.958       .  S
O85          C87   1.214       .  S
C87         C206   1.479       .  S
O88        Mn515   1.951       .  S
O89         Mn92   2.096       .  S
O90         C968   1.270   1_455  A
Mn92        O945   1.958   1_455  S
Mn92        O983   1.954   1_455  S
O93        Mn948   2.119   1_455  S
C94         C186   1.476       .  S
O95        Mn521   2.117   1_545  S
O96         C101   1.254       .  A
O96        Mn506   2.120   1_545  S
Mn97        O100   2.111       .  S
O98         C956   1.273   1_455  A
O99        Mn976   1.954       .  S
O99         C101   1.214       .  S
C101        C106   1.480       .  S
C102        C103   1.413       .  A
C102        C107   1.405       .  A
C102        F330   1.357       .  S
C103        C104   1.407       .  A
C104        C105   1.389       .  A
C104        F995   1.358       .  S
C105        C106   1.409       .  A
C105        F994   1.358       .  S
C106        C107   1.405       .  A
C107        F108   1.358       .  S
F109        C323   1.357   1_554  S
F110        C989   1.358       .  S
F111        C988   1.358       .  S
C112        C113   1.408       .  A
C112        C117   1.407       .  A
C112        F340   1.357       .  S
C113        C114   1.410       .  A
C114        C115   1.393       .  A
C114        F121   1.358       .  S
C115        C116   1.404       .  A
C115        F120   1.359       .  S
C116        C117   1.409       .  A
C117        F118   1.355       .  S
F119        C333   1.357       .  S
C122        C123   1.406       .  A
C122        C127   1.405       .  A
C122        F129   1.358       .  S
C123       C1008   1.407       .  A
C124        C125   1.391       .  A
C124       C1007   1.407   1_455  A
C124        F131   1.357       .  S
C125       C1010   1.406   1_455  A
C125        F130   1.358       .  S
C126        C127   1.412       .  A
C126       C1009   1.406       .  A
C126        C925   1.490       .  S
C127        F128   1.357       .  S
C132        C137   1.403       .  A
C132       C1017   1.405   1_455  A
C132        F139   1.358       .  S
C133        C134   1.406       .  A
C133       C1016   1.405       .  A
C133        C921   1.484       .  S
C134        C135   1.396       .  A
C134        F141   1.358       .  S
C135        C136   1.409       .  A
C135        F140   1.358       .  S
C136       C1021   1.410       .  A
C137       C1020   1.410   1_455  A
C137        F138   1.354       .  S
C142        C143   1.411       .  A
C142        C147   1.396       .  A
C142        F149   1.358       .  S
C143        C144   1.407       .  A
C144        C145   1.403       .  A
C144        F593   1.354       .  S
C145        C146   1.407       .  A
C145        F813   1.358       .  S
C146        C147   1.405       .  A
C147        F148   1.358       .  S
F150        C808   1.358   1_545  S
F151        C586   1.354   1_545  S
C152        C153   1.405       .  A
C152        C157   1.389       .  A
C152        F601   1.359       .  S
C153        C154   1.413       .  A
C154        C155   1.405       .  A
C154        F382   1.357       .  S
C155        C156   1.405       .  A
C155        F160   1.358       .  S
C156        C157   1.410       .  A
C157        F600   1.357       .  S
F158        C599   1.357   1_545  S
F159        C594   1.359   1_545  S
F161        C375   1.357   1_554  S
C162        C163   1.401       .  A
C162        C167   1.398       .  A
C162        F169   1.358       .  S
C163        C606   1.399       .  A
C164        C165   1.401       .  A
C164        C605   1.399   1_545  A
C164        F171   1.358       .  S
C165        C608   1.417   1_545  A
C165        F170   1.358       .  S
C166        C167   1.413       .  A
C166        C607   1.417       .  A
C167        F168   1.355       .  S
C172        C173   1.409       .  A
C172        C177   1.392       .  A
C172        F179   1.358       .  S
C173        C174   1.405       .  A
C174        C175   1.404       .  A
C174        F181   1.358       .  S
C175        C176   1.413       .  A
C175        F180   1.358       .  S
C176        C177   1.406       .  A
C177        F178   1.358       .  S
C182        C183   1.413       .  A
C182        C187   1.404       .  A
C182        F410   1.357       .  S
C183        C184   1.407       .  A
C184        C185   1.388       .  A
C184        F191   1.358       .  S
C185        C186   1.408       .  A
C185        F190   1.358       .  S
C186        C187   1.405       .  A
C187        F188   1.358       .  S
F189        C403   1.357   1_554  S
C192        C193   1.404       .  A
C192        C197   1.395       .  A
C192        F199   1.358       .  S
C193        C194   1.409       .  A
C194        C195   1.402       .  A
C194        F201   1.353       .  S
C195        C196   1.404       .  A
C195        F421   1.358       .  S
C196        C197   1.409       .  A
C197        F198   1.358       .  S
F200        C416   1.358       .  S
C202        C203   1.405       .  A
C202        C207   1.391       .  A
C202        F209   1.358       .  S
C203        C204   1.413       .  A
C204        C205   1.405       .  A
C204        F211   1.358       .  S
C205        C206   1.405       .  A
C205        F210   1.358       .  S
C206        C207   1.408       .  A
C207        F208   1.358       .  S
C212        C213   1.406       .  A
C212        C217   1.403       .  A
C212        F219   1.356       .  S
C213        C214   1.408       .  A
C214        C215   1.395       .  A
C214        F221   1.359       .  S
C215        C216   1.406       .  A
C215        F220   1.358       .  S
C216        C217   1.409       .  A
C217        F218   1.358       .  S
C222        C223   1.405       .  A
C222        C227   1.398       .  A
C222        C437   1.485       .  S
C223        C224   1.417       .  A
C223        H228   1.078       .  S
C224        C225   1.417       .  A
C224        C233   1.509       .  S
C225        C226   1.400       .  A
C225        H229   1.079       .  S
C226        C227   1.399       .  A
C226        C424   1.490       .  S
C227        H230   1.083       .  S
C231        C236   1.395       .  A
C231        C417   1.483       .  S
C232        C233   1.419       .  A
C232        H237   1.078       .  S
C233        C234   1.417       .  A
C234        H238   1.079       .  S
C235        C236   1.398       .  A
C235        C404   1.489       .  S
C236        H239   1.084       .  S
C240        C241   1.401       .  A
C240        C245   1.395       .  A
C240        C384   1.474       .  S
C241        C242   1.415       .  A
C241        H246   1.079       .  S
C242        C243   1.416       .  A
C242        C251   1.507       .  S
C243        C244   1.403       .  A
C243        H247   1.079       .  S
C244        C245   1.402       .  A
C244        C397   1.490       .  S
C245        H248   1.084       .  S
C249        C254   1.397       .  A
C249        C367   1.485       .  S
C250        C251   1.417       .  A
C250        H255   1.079       .  S
C251        C252   1.416       .  A
C252        H256   1.079       .  S
C253        C254   1.400       .  A
C253        C374   1.489       .  S
C254        H257   1.083       .  S
C258        C259   1.406       .  A
C258        C263   1.397       .  A
C258       C1238   1.484       .  S
C259        C260   1.420       .  A
C259        H264   1.077       .  S
C260        C261   1.421       .  A
C260       C1153   1.519       .  S
C261        C262   1.401       .  A
C261        H265   1.075       .  S
C262        C263   1.397       .  A
C262       C1231   1.490       .  S
C263        H266   1.084       .  S
C267        C272   1.397       .  A
C267        C334   1.491       .  S
C268        C269   1.423       .  A
C268        H273   1.077       .  S
C269        C270   1.419       .  A
C269       C1144   1.519       .  S
C270        H274   1.076       .  S
C271        C272   1.398       .  A
C271        C324   1.492       .  S
C272        H275   1.083       .  S
O276        C303   1.270       .  A
O276       Mn744   2.088       .  S
C277        C414   1.480       .  S
C277        O310   1.269       .  A
C277        O307   1.269       .  A
O278       Mn285   2.169       .  S
O278       Mn296   2.111       .  S
O278       Mn300   2.172       .  S
O278       Mn744   2.121       .  S
O279        C289   1.274       .  A
O279       Mn313   2.115       .  S
O280        C303   1.274       .  A
O280       Mn296   2.106       .  S
O281        C308   1.254       .  A
O281       Mn300   2.120       .  S
O282      Mn1197   1.958       .  S
O282       Mn302   1.966       .  S
O282        C298   1.216       .  S
C283        C394   1.479       .  S
C283        O286   1.254       .  A
C283        O309   1.214       .  S
O284      Mn1188   2.115       .  S
O284       Mn285   2.174       .  S
O284       Mn318   2.117       .  S
O284       Mn300   2.176       .  S
Mn285      O1198   2.119       .  S
Mn285       O290   2.114       .  S
Mn285       O759   2.120       .  S
Mn285      O1617   2.176       .  S
O286      Mn1184   2.120   1_455  S
O287        C289   1.267       .  A
O287       Mn294   2.072       .  S
C288        C377   1.479       .  S
C288        O314   1.254       .  A
C288        O301   1.215       .  S
C289        C434   1.479       .  S
O290        C315   1.253       .  A
O291      Mn1611   2.176   1_445  S
O291       Mn294   2.119       .  S
O291       Mn313   2.116       .  S
O291      Mn1626   2.171   1_445  S
O292       Mn296   1.962       .  S
O292       Mn318   1.948       .  S
O292        C315   1.215       .  S
C293        C357   1.486       .  S
C293       O1203   1.273       .  A
C293        O295   1.270       .  A
Mn294       O307   2.094       .  S
Mn294       O751   1.951   1_545  S
Mn294       O743   1.944   1_545  S
O295       Mn318   2.087       .  S
Mn296       O312   2.075       .  S
Mn296       O306   1.947       .  S
O297        C299   1.276       .  A
O297       Mn744   2.116       .  S
C298        C344   1.478       .  S
C298        O316   1.255       .  A
C299        C364   1.486       .  S
C299        O312   1.268       .  A
Mn300      O1170   2.120       .  S
Mn300       O758   2.117       .  S
Mn300      O1617   2.171       .  S
O301       Mn736   1.944       .  S
O301       Mn304   1.962       .  S
Mn302       O718   2.088       .  S
Mn302       O739   2.116       .  S
Mn302       O720   2.121   1_545  S
Mn302       O320   1.951       .  S
C303        C387   1.495       .  S
Mn304       O311   2.084       .  S
Mn304       O319   2.105       .  S
Mn304      O1168   2.115   1_455  S
Mn304       O309   1.946       .  S
C305        C337   1.482       .  S
C305       O1195   1.270       .  A
C305        O321   1.272       .  A
O306       Mn318   1.958       .  S
O306        C308   1.214       .  S
C308        C427   1.479       .  S
O309       Mn736   1.951       .  S
O310       Mn313   2.096       .  S
O311       C1189   1.270   1_455  A
Mn313      O1166   1.958   1_455  S
Mn313      O1204   1.954   1_455  S
O314      Mn1169   2.119   1_455  S
C315        C407   1.476       .  S
O316       Mn742   2.117   1_545  S
O317        C322   1.254       .  A
O317       Mn727   2.120   1_545  S
Mn318       O321   2.111       .  S
O319       C1177   1.273   1_455  A
O320      Mn1197   1.954       .  S
O320        C322   1.214       .  S
C322        C327   1.480       .  S
C323        C324   1.413       .  A
C323        C328   1.405       .  A
C324        C325   1.407       .  A
C325        C326   1.389       .  A
C325       F1216   1.358       .  S
C326        C327   1.409       .  A
C326       F1215   1.358       .  S
C327        C328   1.405       .  A
C328        F329   1.358       .  S
F331       C1210   1.358       .  S
F332       C1209   1.358       .  S
C333        C334   1.408       .  A
C333        C338   1.407       .  A
C334        C335   1.410       .  A
C335        C336   1.393       .  A
C335        F342   1.358       .  S
C336        C337   1.404       .  A
C336        F341   1.359       .  S
C337        C338   1.409       .  A
C338        F339   1.355       .  S
C343        C344   1.406       .  A
C343        C348   1.405       .  A
C343        F350   1.358       .  S
C344       C1229   1.407       .  A
C345       C1228   1.407   1_455  A
C345        C346   1.391       .  A
C345        F352   1.357       .  S
C346       C1231   1.406   1_455  A
C346        F351   1.358       .  S
C347       C1230   1.406       .  A
C347        C348   1.412       .  A
C347       C1146   1.490       .  S
C348        F349   1.357       .  S
C353       C1238   1.405   1_455  A
C353        C358   1.403       .  A
C353        F360   1.358       .  S
C354       C1237   1.405       .  A
C354        C355   1.406       .  A
C354       C1142   1.484       .  S
C355        C356   1.396       .  A
C355        F362   1.358       .  S
C356        C357   1.409       .  A
C356        F361   1.358       .  S
C357       C1242   1.410       .  A
C358       C1241   1.410   1_455  A
C358        F359   1.354       .  S
C363        C364   1.411       .  A
C363        C368   1.396       .  A
C363        F370   1.358       .  S
C364        C365   1.407       .  A
C365        C366   1.403       .  A
C365        F814   1.354       .  S
C366        C367   1.407       .  A
C366        F592   1.358       .  S
C367        C368   1.405       .  A
C368        F369   1.358       .  S
F371        C587   1.358   1_545  S
F372        C807   1.354   1_545  S
C373        C374   1.405       .  A
C373        C378   1.389       .  A
C373        F822   1.359       .  S
C374        C375   1.413       .  A
C375        C376   1.405       .  A
C376        C377   1.405       .  A
C376        F381   1.358       .  S
C377        C378   1.410       .  A
C378        F821   1.357       .  S
F379        C820   1.357   1_545  S
F380        C815   1.359   1_545  S
C383        C384   1.401       .  A
C383        C388   1.398       .  A
C383        F390   1.358       .  S
C384        C827   1.399       .  A
C385        C826   1.399   1_545  A
C385        C386   1.401       .  A
C385        F392   1.358       .  S
C386        C829   1.417   1_545  A
C386        F391   1.358       .  S
C387        C828   1.417       .  A
C387        C388   1.413       .  A
C388        F389   1.355       .  S
C393        C394   1.409       .  A
C393        C398   1.392       .  A
C393        F400   1.358       .  S
C394        C395   1.405       .  A
C395        C396   1.404       .  A
C395        F402   1.358       .  S
C396        C397   1.413       .  A
C396        F401   1.358       .  S
C397        C398   1.406       .  A
C398        F399   1.358       .  S
C403        C404   1.413       .  A
C403        C408   1.404       .  A
C404        C405   1.407       .  A
C405        C406   1.388       .  A
C405        F412   1.358       .  S
C406        C407   1.408       .  A
C406        F411   1.358       .  S
C407        C408   1.405       .  A
C408        F409   1.358       .  S
C413        C414   1.404       .  A
C413        C418   1.395       .  A
C413        F420   1.358       .  S
C414        C415   1.409       .  A
C415        C416   1.402       .  A
C415        F422   1.353       .  S
C416        C417   1.404       .  A
C417        C418   1.409       .  A
C418        F419   1.358       .  S
C423        C424   1.405       .  A
C423        C428   1.391       .  A
C423        F430   1.358       .  S
C424        C425   1.413       .  A
C425        C426   1.405       .  A
C425        F432   1.358       .  S
C426        C427   1.405       .  A
C426        F431   1.358       .  S
C427        C428   1.408       .  A
C428        F429   1.358       .  S
C433        C434   1.406       .  A
C433        C438   1.403       .  A
C433        F440   1.356       .  S
C434        C435   1.408       .  A
C435        C436   1.395       .  A
C435        F442   1.359       .  S
C436        C437   1.406       .  A
C436        F441   1.358       .  S
C437        C438   1.409       .  A
C438        F439   1.358       .  S
C443        C444   1.405       .  A
C443        C448   1.398       .  A
C443        C658   1.485       .  S
C444        C445   1.417       .  A
C444        H449   1.078       .  S
C445        C446   1.417       .  A
C445        C454   1.509       .  S
C446        C447   1.400       .  A
C446        H450   1.079       .  S
C447        C448   1.399       .  A
C447        C645   1.490       .  S
C448        H451   1.083       .  S
C452        C674   1.404       .  A
C452        C457   1.395       .  A
C452        C638   1.483       .  S
C453        C673   1.404   1_554  A
C453        C454   1.419       .  A
C453        H458   1.078       .  S
C454        C455   1.417       .  A
C455        C677   1.401   1_554  A
C455        H459   1.079       .  S
C456        C676   1.401       .  A
C456        C457   1.398       .  A
C456        C625   1.489       .  S
C457        H460   1.084       .  S
C461        C462   1.401       .  A
C461        C466   1.395       .  A
C461        C605   1.474       .  S
C462        C463   1.415       .  A
C462        H467   1.079       .  S
C463        C464   1.416       .  A
C463        C472   1.507       .  S
C464        C465   1.403       .  A
C464        H468   1.079       .  S
C465        C466   1.402       .  A
C465        C618   1.490       .  S
C466        H469   1.084       .  S
C470        C692   1.404       .  A
C470        C475   1.397       .  A
C470        C588   1.485       .  S
C471        C691   1.404   1_554  A
C471        C472   1.417       .  A
C471        H476   1.079       .  S
C472        C473   1.416       .  A
C473        C695   1.401   1_554  A
C473        H477   1.079       .  S
C474        C694   1.401       .  A
C474        C475   1.400       .  A
C474        C595   1.489       .  S
C475        H478   1.083       .  S
C479        C480   1.406       .  A
C479        C484   1.397       .  A
C479       C1459   1.484       .  S
C480        C481   1.420       .  A
C480        H485   1.077       .  S
C481        C482   1.421       .  A
C481       C1374   1.519       .  S
C482        C483   1.401       .  A
C482        H486   1.075       .  S
C483        C484   1.397       .  A
C483       C1452   1.490       .  S
C484        H487   1.084       .  S
C488        C710   1.408       .  A
C488        C493   1.397       .  A
C488        C555   1.491       .  S
C489        C709   1.408   1_554  A
C489        C490   1.423       .  A
C489        H494   1.077       .  S
C490        C491   1.419       .  A
C490       C1365   1.519       .  S
C491        C713   1.400   1_554  A
C491        H495   1.076       .  S
C492        C712   1.400       .  A
C492        C493   1.398       .  A
C492        C545   1.492       .  S
C493        H496   1.083       .  S
O497        C524   1.270   1_545  A
C498        C635   1.480       .  S
C498        O531   1.269       .  A
C498        O528   1.269       .  A
O499       Mn506   2.169       .  S
O499       Mn517   2.111       .  S
O499       Mn521   2.172       .  S
O500        C510   1.274       .  A
O500       Mn534   2.115       .  S
O501        C524   1.274       .  A
O501       Mn517   2.106       .  S
O502        C529   1.254       .  A
O502       Mn521   2.120       .  S
O503      Mn1418   1.958       .  S
O503       Mn523   1.966       .  S
O503        C519   1.216       .  S
C504        C615   1.479       .  S
C504        O507   1.254       .  A
C504        O530   1.214       .  S
O505      Mn1409   2.115       .  S
O505       Mn506   2.174       .  S
O505       Mn539   2.117       .  S
O505       Mn521   2.176       .  S
Mn506      O1419   2.119       .  S
Mn506       O511   2.114       .  S
Mn506       O954   2.176   1_565  S
O507      Mn1405   2.120   1_455  S
O508        C510   1.267       .  A
O508       Mn515   2.072       .  S
C509        C598   1.479       .  S
C509        O535   1.254       .  A
C509        O522   1.215       .  S
C510        C655   1.479       .  S
O511        C536   1.253       .  A
O512       Mn948   2.176   1_455  S
O512       Mn515   2.119       .  S
O512       Mn534   2.116       .  S
O512       Mn963   2.171   1_455  S
O513       Mn517   1.962       .  S
O513       Mn539   1.948       .  S
O513        C536   1.215       .  S
C514        C578   1.486       .  S
C514       O1424   1.273       .  A
C514        O516   1.270       .  A
Mn515       O528   2.094       .  S
O516       Mn539   2.087       .  S
Mn517       O533   2.075       .  S
Mn517       O527   1.947       .  S
O518        C520   1.276   1_545  A
C519        C565   1.478       .  S
C519        O537   1.255       .  A
C520        C585   1.486       .  S
C520        O533   1.268       .  A
Mn521      O1391   2.120       .  S
Mn521       O954   2.171   1_565  S
O522       Mn525   1.962       .  S
Mn523       O541   1.951       .  S
C524        C608   1.495       .  S
Mn525       O532   2.084       .  S
Mn525       O540   2.105       .  S
Mn525      O1389   2.115   1_455  S
Mn525       O530   1.946       .  S
C526        C558   1.482       .  S
C526       O1416   1.270       .  A
C526        O542   1.272       .  A
O527       Mn539   1.958       .  S
O527        C529   1.214       .  S
C529        C648   1.479       .  S
O531       Mn534   2.096       .  S
O532       C1410   1.270   1_455  A
Mn534      O1387   1.958   1_455  S
Mn534      O1425   1.954   1_455  S
O535      Mn1390   2.119   1_455  S
C536        C628   1.476       .  S
O538        C543   1.254       .  A
Mn539       O542   2.111       .  S
O540       C1398   1.273   1_455  A
O541      Mn1418   1.954       .  S
O541        C543   1.214       .  S
C543        C548   1.480       .  S
C544        C545   1.413       .  A
C544        C549   1.405       .  A
C544        F772   1.357       .  S
C545        C546   1.407       .  A
C546        C547   1.389       .  A
C546       F1437   1.358       .  S
C547        C548   1.409       .  A
C547       F1436   1.358       .  S
C548        C549   1.405       .  A
C549        F550   1.358       .  S
F551        C765   1.357   1_554  S
F552       C1431   1.358       .  S
F553       C1430   1.358       .  S
C554        C555   1.408       .  A
C554        C559   1.407       .  A
C554        F782   1.357       .  S
C555        C556   1.410       .  A
C556        C557   1.393       .  A
C556        F563   1.358       .  S
C557        C558   1.404       .  A
C557        F562   1.359       .  S
C558        C559   1.409       .  A
C559        F560   1.355       .  S
F561        C775   1.357       .  S
C564        C565   1.406       .  A
C564        C569   1.405       .  A
C564        F571   1.358       .  S
C565       C1450   1.407       .  A
C566       C1449   1.407   1_455  A
C566        C567   1.391       .  A
C566        F573   1.357       .  S
C567       C1452   1.406   1_455  A
C567        F572   1.358       .  S
C568       C1451   1.406       .  A
C568        C569   1.412       .  A
C568       C1367   1.490       .  S
C569        F570   1.357       .  S
C574       C1459   1.405   1_455  A
C574        C579   1.403       .  A
C574        F581   1.358       .  S
C575       C1458   1.405       .  A
C575        C576   1.406       .  A
C575       C1363   1.484       .  S
C576        C577   1.396       .  A
C576        F583   1.358       .  S
C577        C578   1.409       .  A
C577        F582   1.358       .  S
C578       C1463   1.410       .  A
C579       C1462   1.410   1_455  A
C579        F580   1.354       .  S
C584        C585   1.411       .  A
C584        C589   1.396       .  A
C584        F591   1.358       .  S
C585        C586   1.407       .  A
C586        C587   1.403       .  A
C587        C588   1.407       .  A
C588        C589   1.405       .  A
C589        F590   1.358       .  S
C594        C595   1.405       .  A
C594        C599   1.389       .  A
C595        C596   1.413       .  A
C596        C597   1.405       .  A
C596        F824   1.357       .  S
C597        C598   1.405       .  A
C597        F602   1.358       .  S
C598        C599   1.410       .  A
F603        C817   1.357   1_554  S
C604        C605   1.401       .  A
C604        C609   1.398       .  A
C604        F611   1.358       .  S
C606        C607   1.401       .  A
C606        F613   1.358       .  S
C607        F612   1.358       .  S
C608        C609   1.413       .  A
C609        F610   1.355       .  S
C614        C615   1.409       .  A
C614        C619   1.392       .  A
C614        F621   1.358       .  S
C615        C616   1.405       .  A
C616        C617   1.404       .  A
C616        F623   1.358   1_565  S
C617        C618   1.413       .  A
C617        F622   1.358   1_565  S
C618        C619   1.406       .  A
C619        F620   1.358       .  S
C624        C625   1.413       .  A
C624        C629   1.404       .  A
C624        F852   1.357       .  S
C625        C626   1.407       .  A
C626        C627   1.388       .  A
C626        F633   1.358       .  S
C627        C628   1.408       .  A
C627        F632   1.358       .  S
C628        C629   1.405       .  A
C629        F630   1.358       .  S
F631        C845   1.357   1_554  S
C634        C635   1.404       .  A
C634        C639   1.395       .  A
C634        F641   1.358       .  S
C635        C636   1.409       .  A
C636        C637   1.402       .  A
C636        F643   1.353       .  S
C637        C638   1.404       .  A
C637        F863   1.358       .  S
C638        C639   1.409       .  A
C639        F640   1.358       .  S
F642        C858   1.358       .  S
C644        C645   1.405       .  A
C644        C649   1.391       .  A
C644        F651   1.358       .  S
C645        C646   1.413       .  A
C646        C647   1.405       .  A
C646        F653   1.358       .  S
C647        C648   1.405       .  A
C647        F652   1.358       .  S
C648        C649   1.408       .  A
C649        F650   1.358       .  S
C654        C655   1.406       .  A
C654        C659   1.403       .  A
C654        F661   1.356       .  S
C655        C656   1.408       .  A
C656        C657   1.395       .  A
C656        F663   1.359       .  S
C657        C658   1.406       .  A
C657        F662   1.358       .  S
C658        C659   1.409       .  A
C659        F660   1.358       .  S
C664        C665   1.405       .  A
C664        C669   1.398       .  A
C664        C879   1.485       .  S
C665        C666   1.417       .  A
C665        H670   1.078       .  S
C666        C667   1.417       .  A
C666        C675   1.509       .  S
C667        C668   1.400       .  A
C667        H671   1.079       .  S
C668        C669   1.399       .  A
C668        C866   1.490       .  S
C669        H672   1.083       .  S
C673        C678   1.395       .  A
C673        C859   1.483       .  S
C674        C675   1.419       .  A
C674        H679   1.078       .  S
C675        C676   1.417       .  A
C676        H680   1.079       .  S
C677        C678   1.398       .  A
C677        C846   1.489       .  S
C678        H681   1.084       .  S
C682        C683   1.401       .  A
C682        C687   1.395       .  A
C682        C826   1.474       .  S
C683        C684   1.415       .  A
C683        H688   1.079       .  S
C684        C685   1.416       .  A
C684        C693   1.507       .  S
C685        C686   1.403       .  A
C685        H689   1.079       .  S
C686        C687   1.402       .  A
C686        C839   1.490       .  S
C687        H690   1.084       .  S
C691        C696   1.397       .  A
C691        C809   1.485       .  S
C692        C693   1.417       .  A
C692        H697   1.079       .  S
C693        C694   1.416       .  A
C694        H698   1.079       .  S
C695        C696   1.400       .  A
C695        C816   1.489       .  S
C696        H699   1.083       .  S
C700        C701   1.406       .  A
C700        C705   1.397       .  A
C700       C1680   1.484       .  S
C701        C702   1.420       .  A
C701        H706   1.077       .  S
C702        C703   1.421       .  A
C702       C1595   1.519       .  S
C703        C704   1.401       .  A
C703        H707   1.075       .  S
C704        C705   1.397       .  A
C704       C1673   1.490       .  S
C705        H708   1.084       .  S
C709        C714   1.397       .  A
C709        C776   1.491       .  S
C710        C711   1.423       .  A
C710        H715   1.077       .  S
C711        C712   1.419       .  A
C711       C1586   1.519       .  S
C712        H716   1.076       .  S
C713        C714   1.398       .  A
C713        C766   1.492       .  S
C714        H717   1.083       .  S
O718        C745   1.270   1_545  A
C719        C856   1.480       .  S
C719        O752   1.269       .  A
C719        O749   1.269       .  A
O720       Mn727   2.169       .  S
O720       Mn738   2.111       .  S
O720       Mn742   2.172       .  S
O721        C731   1.274       .  A
O721       Mn755   2.115       .  S
O722        C745   1.274       .  A
O722       Mn738   2.106       .  S
O723        C750   1.254       .  A
O723       Mn742   2.120       .  S
O724      Mn1639   1.958       .  S
O724       Mn744   1.966       .  S
O724        C740   1.216       .  S
C725        C836   1.479       .  S
C725        O728   1.254       .  A
C725        O751   1.214       .  S
O726      Mn1630   2.115       .  S
O726       Mn727   2.174       .  S
O726       Mn760   2.117       .  S
O726       Mn742   2.176       .  S
Mn727      O1640   2.119       .  S
Mn727       O732   2.114       .  S
Mn727      O1175   2.176   1_565  S
O728      Mn1626   2.120   1_455  S
O729        C731   1.267       .  A
O729       Mn736   2.072       .  S
C730        C819   1.479       .  S
C730        O756   1.254       .  A
C730        O743   1.215       .  S
C731        C876   1.479       .  S
O732        C757   1.253       .  A
O733      Mn1169   2.176   1_455  S
O733       Mn736   2.119       .  S
O733       Mn755   2.116       .  S
O733      Mn1184   2.171   1_455  S
O734       Mn738   1.962       .  S
O734       Mn760   1.948       .  S
O734        C757   1.215       .  S
C735        C799   1.486       .  S
C735       O1645   1.273       .  A
C735        O737   1.270       .  A
Mn736       O749   2.094       .  S
O737       Mn760   2.087       .  S
Mn738       O754   2.075       .  S
Mn738       O748   1.947       .  S
O739        C741   1.276   1_545  A
C740        C786   1.478       .  S
C740        O758   1.255       .  A
C741        C806   1.486       .  S
C741        O754   1.268       .  A
Mn742      O1612   2.120       .  S
Mn742      O1175   2.171   1_565  S
O743       Mn746   1.962       .  S
Mn744       O762   1.951       .  S
C745        C829   1.495       .  S
Mn746       O753   2.084       .  S
Mn746       O761   2.105       .  S
Mn746      O1610   2.115   1_455  S
Mn746       O751   1.946       .  S
C747        C779   1.482       .  S
C747       O1637   1.270       .  A
C747        O763   1.272       .  A
O748       Mn760   1.958       .  S
O748        C750   1.214       .  S
C750        C869   1.479       .  S
O752       Mn755   2.096       .  S
O753       C1631   1.270   1_455  A
Mn755      O1608   1.958   1_455  S
Mn755      O1646   1.954   1_455  S
O756      Mn1611   2.119   1_455  S
C757        C849   1.476       .  S
O759        C764   1.254       .  A
Mn760       O763   2.111       .  S
O761       C1619   1.273   1_455  A
O762      Mn1639   1.954       .  S
O762        C764   1.214       .  S
C764        C769   1.480       .  S
C765        C766   1.413       .  A
C765        C770   1.405       .  A
C766        C767   1.407       .  A
C767        C768   1.389       .  A
C767       F1658   1.358       .  S
C768        C769   1.409       .  A
C768       F1657   1.358       .  S
C769        C770   1.405       .  A
C770        F771   1.358       .  S
F773       C1652   1.358       .  S
F774       C1651   1.358       .  S
C775        C776   1.408       .  A
C775        C780   1.407       .  A
C776        C777   1.410       .  A
C777        C778   1.393       .  A
C777        F784   1.358       .  S
C778        C779   1.404       .  A
C778        F783   1.359       .  S
C779        C780   1.409       .  A
C780        F781   1.355       .  S
C785        C786   1.406       .  A
C785        C790   1.405       .  A
C785        F792   1.358       .  S
C786       C1671   1.407       .  A
C787       C1670   1.407   1_455  A
C787        C788   1.391       .  A
C787        F794   1.357       .  S
C788       C1673   1.406   1_455  A
C788        F793   1.358       .  S
C789       C1672   1.406       .  A
C789        C790   1.412       .  A
C789       C1588   1.490       .  S
C790        F791   1.357       .  S
C795       C1680   1.405   1_455  A
C795        C800   1.403       .  A
C795        F802   1.358       .  S
C796       C1679   1.405       .  A
C796        C797   1.406       .  A
C796       C1584   1.484       .  S
C797        C798   1.396       .  A
C797        F804   1.358       .  S
C798        C799   1.409       .  A
C798        F803   1.358       .  S
C799       C1684   1.410       .  A
C800       C1683   1.410   1_455  A
C800        F801   1.354       .  S
C805        C806   1.411       .  A
C805        C810   1.396       .  A
C805        F812   1.358       .  S
C806        C807   1.407       .  A
C807        C808   1.403       .  A
C808        C809   1.407       .  A
C809        C810   1.405       .  A
C810        F811   1.358       .  S
C815        C816   1.405       .  A
C815        C820   1.389       .  A
C816        C817   1.413       .  A
C817        C818   1.405       .  A
C818        C819   1.405       .  A
C818        F823   1.358       .  S
C819        C820   1.410       .  A
C825        C826   1.401       .  A
C825        C830   1.398       .  A
C825        F832   1.358       .  S
C827        C828   1.401       .  A
C827        F834   1.358       .  S
C828        F833   1.358       .  S
C829        C830   1.413       .  A
C830        F831   1.355       .  S
C835        C836   1.409       .  A
C835        C840   1.392       .  A
C835        F842   1.358       .  S
C836        C837   1.405       .  A
C837        C838   1.404       .  A
C837        F844   1.358   1_565  S
C838        C839   1.413       .  A
C838        F843   1.358   1_565  S
C839        C840   1.406       .  A
C840        F841   1.358       .  S
C845        C846   1.413       .  A
C845        C850   1.404       .  A
C846        C847   1.407       .  A
C847        C848   1.388       .  A
C847        F854   1.358       .  S
C848        C849   1.408       .  A
C848        F853   1.358       .  S
C849        C850   1.405       .  A
C850        F851   1.358       .  S
C855        C856   1.404       .  A
C855        C860   1.395       .  A
C855        F862   1.358       .  S
C856        C857   1.409       .  A
C857        C858   1.402       .  A
C857        F864   1.353       .  S
C858        C859   1.404       .  A
C859        C860   1.409       .  A
C860        F861   1.358       .  S
C865        C866   1.405       .  A
C865        C870   1.391       .  A
C865        F872   1.358       .  S
C866        C867   1.413       .  A
C867        C868   1.405       .  A
C867        F874   1.358       .  S
C868        C869   1.405       .  A
C868        F873   1.358       .  S
C869        C870   1.408       .  A
C870        F871   1.358       .  S
C875        C876   1.406       .  A
C875        C880   1.403       .  A
C875        F882   1.356       .  S
C876        C877   1.408       .  A
C877        C878   1.395       .  A
C877        F884   1.359       .  S
C878        C879   1.406       .  A
C878        F883   1.358       .  S
C879        C880   1.409       .  A
C880        F881   1.358       .  S
C885        C886   1.405       .  A
C885        C890   1.398       .  A
C885       C1100   1.485       .  S
C886        C887   1.417       .  A
C886        H891   1.078       .  S
C887        C888   1.417       .  A
C887        C896   1.509       .  S
C888        C889   1.400       .  A
C888        H892   1.079       .  S
C889        C890   1.399       .  A
C889       C1087   1.490       .  S
C890        H893   1.083       .  S
C894       C1116   1.404       .  A
C894        C899   1.395       .  A
C894       C1080   1.483       .  S
C895       C1115   1.404   1_554  A
C895        C896   1.419       .  A
C895        H900   1.078       .  S
C896        C897   1.417       .  A
C897       C1119   1.401   1_554  A
C897        H901   1.079       .  S
C898       C1118   1.401       .  A
C898        C899   1.398       .  A
C898       C1067   1.489       .  S
C899        H902   1.084       .  S
C903        C904   1.401       .  A
C903        C908   1.395       .  A
C903       C1047   1.474       .  S
C904        C905   1.415       .  A
C904        H909   1.079       .  S
C905        C906   1.416       .  A
C905        C914   1.507       .  S
C906        C907   1.403       .  A
C906        H910   1.079       .  S
C907        C908   1.402       .  A
C907       C1060   1.490       .  S
C908        H911   1.084       .  S
C912       C1134   1.404       .  A
C912        C917   1.397       .  A
C912       C1030   1.485       .  S
C913       C1133   1.404   1_554  A
C913        C914   1.417       .  A
C913        H918   1.079       .  S
C914        C915   1.416       .  A
C915       C1137   1.401   1_554  A
C915        H919   1.079       .  S
C916       C1136   1.401       .  A
C916        C917   1.400       .  A
C916       C1037   1.489       .  S
C917        H920   1.083       .  S
C921        C922   1.406       .  A
C921        C926   1.397       .  A
C922        C923   1.420       .  A
C922        H927   1.077       .  S
C923        C924   1.421       .  A
C924        C925   1.401       .  A
C924        H928   1.075       .  S
C925        C926   1.397       .  A
C926        H929   1.084       .  S
C930       C1152   1.408       .  A
C930        C935   1.397       .  A
C930        C997   1.491       .  S
C931       C1151   1.408   1_554  A
C931        C932   1.423       .  A
C931        H936   1.077       .  S
C932        C933   1.419       .  A
C933       C1155   1.400   1_554  A
C933        H937   1.076       .  S
C934       C1154   1.400       .  A
C934        C935   1.398       .  A
C934        C987   1.492       .  S
C935        H938   1.083       .  S
O939        C966   1.270       .  A
O939      Mn1407   2.088       .  S
C940       C1077   1.480       .  S
C940        O973   1.269       .  A
C940        O970   1.269       .  A
O941       Mn948   2.169       .  S
O941       Mn959   2.111       .  S
O941       Mn963   2.172       .  S
O941      Mn1407   2.121       .  S
O942        C952   1.274       .  A
O942       Mn976   2.115       .  S
O943        C966   1.274       .  A
O943       Mn959   2.106       .  S
O944        C971   1.254       .  A
O944       Mn963   2.120       .  S
O945       Mn965   1.966       .  S
O945        C961   1.216       .  S
C946       C1057   1.479       .  S
C946        O949   1.254       .  A
C946        O972   1.214       .  S
O947       Mn948   2.174       .  S
O947       Mn981   2.117       .  S
O947       Mn963   2.176       .  S
Mn948       O953   2.114       .  S
Mn948      O1422   2.120       .  S
O950        C952   1.267       .  A
O950       Mn957   2.072       .  S
C951       C1040   1.479       .  S
C951        O977   1.254       .  A
C951        O964   1.215       .  S
C952       C1097   1.479       .  S
O953        C978   1.253       .  A
O954       Mn957   2.119       .  S
O954       Mn976   2.116       .  S
O955       Mn959   1.962       .  S
O955       Mn981   1.948       .  S
O955        C978   1.215       .  S
C956       C1020   1.486       .  S
C956        O958   1.270       .  A
Mn957       O970   2.094       .  S
Mn957      O1414   1.951   1_545  S
Mn957      O1406   1.944   1_545  S
O958       Mn981   2.087       .  S
Mn959       O975   2.075       .  S
Mn959       O969   1.947       .  S
O960        C962   1.276       .  A
O960      Mn1407   2.116       .  S
C961       C1007   1.478       .  S
C961        O979   1.255       .  A
C962       C1027   1.486       .  S
C962        O975   1.268       .  A
Mn963      O1421   2.117       .  S
O964      Mn1399   1.944       .  S
O964       Mn967   1.962       .  S
Mn965      O1381   2.088       .  S
Mn965      O1402   2.116       .  S
Mn965      O1383   2.121   1_545  S
Mn965       O983   1.951       .  S
C966       C1050   1.495       .  S
Mn967       O974   2.084       .  S
Mn967       O982   2.105       .  S
Mn967       O972   1.946       .  S
C968       C1000   1.482       .  S
C968        O984   1.272       .  A
O969       Mn981   1.958       .  S
O969        C971   1.214       .  S
C971       C1090   1.479       .  S
O972      Mn1399   1.951       .  S
O973       Mn976   2.096       .  S
C978       C1070   1.476       .  S
O979      Mn1405   2.117   1_545  S
O980        C985   1.254       .  A
O980      Mn1390   2.120   1_545  S
Mn981       O984   2.111       .  S
O983        C985   1.214       .  S
C985        C990   1.480       .  S
C986        C987   1.413       .  A
C986        C991   1.405       .  A
C986       F1214   1.357       .  S
C987        C988   1.407   1_655  A
C988        C989   1.389       .  A
C989        C990   1.409   1_455  A
C990        C991   1.405       .  A
C991        F992   1.358       .  S
F993       C1207   1.357   1_554  S
C996        C997   1.408       .  A
C996       C1001   1.407       .  A
C996       F1224   1.357       .  S
C997        C998   1.410   1_655  A
C998        C999   1.393       .  A
C998       F1005   1.358       .  S
C999       C1000   1.404   1_455  A
C999       F1004   1.359       .  S
C1000      C1001   1.409       .  A
C1001      F1002   1.355       .  S
F1003      C1217   1.357       .  S
C1006      C1007   1.406       .  A
C1006      C1011   1.405       .  A
C1006      F1013   1.358       .  S
C1008      C1009   1.391       .  A
C1008      F1015   1.357       .  S
C1009      F1014   1.358       .  S
C1010      C1011   1.412       .  A
C1011      F1012   1.357       .  S
C1016      C1021   1.403       .  A
C1016      F1023   1.358       .  S
C1017      C1018   1.406       .  A
C1018      C1019   1.396       .  A
C1018      F1025   1.358       .  S
C1019      C1020   1.409       .  A
C1019      F1024   1.358       .  S
C1021      F1022   1.354       .  S
C1026      C1027   1.411       .  A
C1026      C1031   1.396       .  A
C1026      F1033   1.358       .  S
C1027      C1028   1.407       .  A
C1028      C1029   1.403       .  A
C1028      F1477   1.354       .  S
C1029      C1030   1.407       .  A
C1029      F1697   1.358       .  S
C1030      C1031   1.405       .  A
C1031      F1032   1.358       .  S
F1034      C1692   1.358   1_545  S
F1035      C1470   1.354   1_545  S
C1036      C1037   1.405       .  A
C1036      C1041   1.389       .  A
C1036      F1485   1.359       .  S
C1037      C1038   1.413       .  A
C1038      C1039   1.405       .  A
C1038      F1266   1.357       .  S
C1039      C1040   1.405       .  A
C1039      F1044   1.358       .  S
C1040      C1041   1.410       .  A
C1041      F1484   1.357       .  S
F1042      C1483   1.357   1_545  S
F1043      C1478   1.359   1_545  S
F1045      C1259   1.357   1_554  S
C1046      C1047   1.401       .  A
C1046      C1051   1.398       .  A
C1046      F1053   1.358       .  S
C1047      C1490   1.399       .  A
C1048      C1489   1.399   1_545  A
C1048      C1049   1.401       .  A
C1048      F1055   1.358       .  S
C1049      C1492   1.417   1_545  A
C1049      F1054   1.358       .  S
C1050      C1491   1.417       .  A
C1050      C1051   1.413       .  A
C1051      F1052   1.355       .  S
C1056      C1057   1.409       .  A
C1056      C1061   1.392       .  A
C1056      F1063   1.358       .  S
C1057      C1058   1.405       .  A
C1058      C1059   1.404       .  A
C1058      F1065   1.358       .  S
C1059      C1060   1.413       .  A
C1059      F1064   1.358       .  S
C1060      C1061   1.406       .  A
C1061      F1062   1.358       .  S
C1066      C1067   1.413       .  A
C1066      C1071   1.404       .  A
C1066      F1294   1.357       .  S
C1067      C1068   1.407       .  A
C1068      C1069   1.388       .  A
C1068      F1075   1.358       .  S
C1069      C1070   1.408       .  A
C1069      F1074   1.358       .  S
C1070      C1071   1.405       .  A
C1071      F1072   1.358       .  S
F1073      C1287   1.357   1_554  S
C1076      C1077   1.404       .  A
C1076      C1081   1.395       .  A
C1076      F1083   1.358       .  S
C1077      C1078   1.409       .  A
C1078      C1079   1.402       .  A
C1078      F1085   1.353       .  S
C1079      C1080   1.404       .  A
C1079      F1305   1.358       .  S
C1080      C1081   1.409       .  A
C1081      F1082   1.358       .  S
F1084      C1300   1.358       .  S
C1086      C1087   1.405       .  A
C1086      C1091   1.391       .  A
C1086      F1093   1.358       .  S
C1087      C1088   1.413       .  A
C1088      C1089   1.405       .  A
C1088      F1095   1.358       .  S
C1089      C1090   1.405       .  A
C1089      F1094   1.358       .  S
C1090      C1091   1.408       .  A
C1091      F1092   1.358       .  S
C1096      C1097   1.406       .  A
C1096      C1101   1.403       .  A
C1096      F1103   1.356       .  S
C1097      C1098   1.408       .  A
C1098      C1099   1.395       .  A
C1098      F1105   1.359       .  S
C1099      C1100   1.406       .  A
C1099      F1104   1.358       .  S
C1100      C1101   1.409       .  A
C1101      F1102   1.358       .  S
C1106      C1107   1.405       .  A
C1106      C1111   1.398       .  A
C1106      C1321   1.485       .  S
C1107      C1108   1.417       .  A
C1107      H1112   1.078       .  S
C1108      C1109   1.417       .  A
C1108      C1117   1.509       .  S
C1109      C1110   1.400       .  A
C1109      H1113   1.079       .  S
C1110      C1111   1.399       .  A
C1110      C1308   1.490       .  S
C1111      H1114   1.083       .  S
C1115      C1120   1.395       .  A
C1115      C1301   1.483       .  S
C1116      C1117   1.419       .  A
C1116      H1121   1.078       .  S
C1117      C1118   1.417       .  A
C1118      H1122   1.079       .  S
C1119      C1120   1.398       .  A
C1119      C1288   1.489       .  S
C1120      H1123   1.084       .  S
C1124      C1125   1.401       .  A
C1124      C1129   1.395       .  A
C1124      C1268   1.474       .  S
C1125      C1126   1.415       .  A
C1125      H1130   1.079       .  S
C1126      C1127   1.416       .  A
C1126      C1135   1.507       .  S
C1127      C1128   1.403       .  A
C1127      H1131   1.079       .  S
C1128      C1129   1.402       .  A
C1128      C1281   1.490       .  S
C1129      H1132   1.084       .  S
C1133      C1138   1.397       .  A
C1133      C1251   1.485       .  S
C1134      C1135   1.417       .  A
C1134      H1139   1.079       .  S
C1135      C1136   1.416       .  A
C1136      H1140   1.079       .  S
C1137      C1138   1.400       .  A
C1137      C1258   1.489       .  S
C1138      H1141   1.083       .  S
C1142      C1143   1.406       .  A
C1142      C1147   1.397       .  A
C1143      C1144   1.420       .  A
C1143      H1148   1.077       .  S
C1144      C1145   1.421       .  A
C1145      C1146   1.401       .  A
C1145      H1149   1.075       .  S
C1146      C1147   1.397       .  A
C1147      H1150   1.084       .  S
C1151      C1156   1.397       .  A
C1151      C1218   1.491       .  S
C1152      C1153   1.423       .  A
C1152      H1157   1.077       .  S
C1153      C1154   1.419       .  A
C1154      H1158   1.076       .  S
C1155      C1156   1.398       .  A
C1155      C1208   1.492       .  S
C1156      H1159   1.083       .  S
O1160      C1187   1.270       .  A
O1160     Mn1628   2.088       .  S
C1161      C1298   1.480       .  S
C1161      O1194   1.269       .  A
C1161      O1191   1.269       .  A
O1162     Mn1169   2.169       .  S
O1162     Mn1180   2.111       .  S
O1162     Mn1184   2.172       .  S
O1162     Mn1628   2.121       .  S
O1163      C1173   1.274       .  A
O1163     Mn1197   2.115       .  S
O1164      C1187   1.274       .  A
O1164     Mn1180   2.106       .  S
O1165      C1192   1.254       .  A
O1165     Mn1184   2.120       .  S
O1166     Mn1186   1.966       .  S
O1166      C1182   1.216       .  S
C1167      C1278   1.479       .  S
C1167      O1170   1.254       .  A
C1167      O1193   1.214       .  S
O1168     Mn1169   2.174       .  S
O1168     Mn1202   2.117       .  S
O1168     Mn1184   2.176       .  S
Mn1169     O1174   2.114       .  S
Mn1169     O1643   2.120       .  S
O1171      C1173   1.267       .  A
O1171     Mn1178   2.072       .  S
C1172      C1261   1.479       .  S
C1172      O1198   1.254       .  A
C1172      O1185   1.215       .  S
C1173      C1318   1.479       .  S
O1174      C1199   1.253       .  A
O1175     Mn1178   2.119       .  S
O1175     Mn1197   2.116       .  S
O1176     Mn1180   1.962       .  S
O1176     Mn1202   1.948       .  S
O1176      C1199   1.215       .  S
C1177      C1241   1.486       .  S
C1177      O1179   1.270       .  A
Mn1178     O1191   2.094       .  S
Mn1178     O1635   1.951   1_545  S
Mn1178     O1627   1.944   1_545  S
O1179     Mn1202   2.087       .  S
Mn1180     O1196   2.075       .  S
Mn1180     O1190   1.947       .  S
O1181      C1183   1.276       .  A
O1181     Mn1628   2.116       .  S
C1182      C1228   1.478       .  S
C1182      O1200   1.255       .  A
C1183      C1248   1.486       .  S
C1183      O1196   1.268       .  A
Mn1184     O1642   2.117       .  S
O1185     Mn1620   1.944       .  S
O1185     Mn1188   1.962       .  S
Mn1186     O1602   2.088       .  S
Mn1186     O1623   2.116       .  S
Mn1186     O1604   2.121   1_545  S
Mn1186     O1204   1.951       .  S
C1187      C1271   1.495       .  S
Mn1188     O1195   2.084       .  S
Mn1188     O1203   2.105       .  S
Mn1188     O1193   1.946       .  S
C1189      C1221   1.482       .  S
C1189      O1205   1.272       .  A
O1190     Mn1202   1.958       .  S
O1190      C1192   1.214       .  S
C1192      C1311   1.479       .  S
O1193     Mn1620   1.951       .  S
O1194     Mn1197   2.096       .  S
C1199      C1291   1.476       .  S
O1200     Mn1626   2.117   1_545  S
O1201      C1206   1.254       .  A
O1201     Mn1611   2.120   1_545  S
Mn1202     O1205   2.111       .  S
O1204      C1206   1.214       .  S
C1206      C1211   1.480       .  S
C1207      C1208   1.413       .  A
C1207      C1212   1.405       .  A
C1208      C1209   1.407   1_655  A
C1209      C1210   1.389       .  A
C1210      C1211   1.409   1_455  A
C1211      C1212   1.405       .  A
C1212      F1213   1.358       .  S
C1217      C1218   1.408       .  A
C1217      C1222   1.407       .  A
C1218      C1219   1.410   1_655  A
C1219      C1220   1.393       .  A
C1219      F1226   1.358       .  S
C1220      C1221   1.404   1_455  A
C1220      F1225   1.359       .  S
C1221      C1222   1.409       .  A
C1222      F1223   1.355       .  S
C1227      C1228   1.406       .  A
C1227      C1232   1.405       .  A
C1227      F1234   1.358       .  S
C1229      C1230   1.391       .  A
C1229      F1236   1.357       .  S
C1230      F1235   1.358       .  S
C1231      C1232   1.412       .  A
C1232      F1233   1.357       .  S
C1237      C1242   1.403       .  A
C1237      F1244   1.358       .  S
C1238      C1239   1.406       .  A
C1239      C1240   1.396       .  A
C1239      F1246   1.358       .  S
C1240      C1241   1.409       .  A
C1240      F1245   1.358       .  S
C1242      F1243   1.354       .  S
C1247      C1248   1.411       .  A
C1247      C1252   1.396       .  A
C1247      F1254   1.358       .  S
C1248      C1249   1.407       .  A
C1249      C1250   1.403       .  A
C1249      F1698   1.354       .  S
C1250      C1251   1.407       .  A
C1250      F1476   1.358       .  S
C1251      C1252   1.405       .  A
C1252      F1253   1.358       .  S
F1255      C1471   1.358   1_545  S
F1256      C1691   1.354   1_545  S
C1257      C1258   1.405       .  A
C1257      C1262   1.389       .  A
C1257      F1706   1.359       .  S
C1258      C1259   1.413       .  A
C1259      C1260   1.405       .  A
C1260      C1261   1.405       .  A
C1260      F1265   1.358       .  S
C1261      C1262   1.410       .  A
C1262      F1705   1.357       .  S
F1263      C1704   1.357   1_545  S
F1264      C1699   1.359   1_545  S
C1267      C1268   1.401       .  A
C1267      C1272   1.398       .  A
C1267      F1274   1.358       .  S
C1268      C1711   1.399       .  A
C1269      C1710   1.399   1_545  A
C1269      C1270   1.401       .  A
C1269      F1276   1.358       .  S
C1270      C1713   1.417   1_545  A
C1270      F1275   1.358       .  S
C1271      C1712   1.417       .  A
C1271      C1272   1.413       .  A
C1272      F1273   1.355       .  S
C1277      C1278   1.409       .  A
C1277      C1282   1.392       .  A
C1277      F1284   1.358       .  S
C1278      C1279   1.405       .  A
C1279      C1280   1.404       .  A
C1279      F1286   1.358       .  S
C1280      C1281   1.413       .  A
C1280      F1285   1.358       .  S
C1281      C1282   1.406       .  A
C1282      F1283   1.358       .  S
C1287      C1288   1.413       .  A
C1287      C1292   1.404       .  A
C1288      C1289   1.407       .  A
C1289      C1290   1.388       .  A
C1289      F1296   1.358       .  S
C1290      C1291   1.408       .  A
C1290      F1295   1.358       .  S
C1291      C1292   1.405       .  A
C1292      F1293   1.358       .  S
C1297      C1298   1.404       .  A
C1297      C1302   1.395       .  A
C1297      F1304   1.358       .  S
C1298      C1299   1.409       .  A
C1299      C1300   1.402       .  A
C1299      F1306   1.353       .  S
C1300      C1301   1.404       .  A
C1301      C1302   1.409       .  A
C1302      F1303   1.358       .  S
C1307      C1308   1.405       .  A
C1307      C1312   1.391       .  A
C1307      F1314   1.358       .  S
C1308      C1309   1.413       .  A
C1309      C1310   1.405       .  A
C1309      F1316   1.358       .  S
C1310      C1311   1.405       .  A
C1310      F1315   1.358       .  S
C1311      C1312   1.408       .  A
C1312      F1313   1.358       .  S
C1317      C1318   1.406       .  A
C1317      C1322   1.403       .  A
C1317      F1324   1.356       .  S
C1318      C1319   1.408       .  A
C1319      C1320   1.395       .  A
C1319      F1326   1.359       .  S
C1320      C1321   1.406       .  A
C1320      F1325   1.358       .  S
C1321      C1322   1.409       .  A
C1322      F1323   1.358       .  S
C1327      C1328   1.405       .  A
C1327      C1332   1.398       .  A
C1327      C1542   1.485       .  S
C1328      C1329   1.417       .  A
C1328      H1333   1.078       .  S
C1329      C1330   1.417       .  A
C1329      C1338   1.509       .  S
C1330      C1331   1.400       .  A
C1330      H1334   1.079       .  S
C1331      C1332   1.399       .  A
C1331      C1529   1.490       .  S
C1332      H1335   1.083       .  S
C1336      C1558   1.404       .  A
C1336      C1341   1.395       .  A
C1336      C1522   1.483       .  S
C1337      C1557   1.404   1_554  A
C1337      C1338   1.419       .  A
C1337      H1342   1.078       .  S
C1338      C1339   1.417       .  A
C1339      C1561   1.401   1_554  A
C1339      H1343   1.079       .  S
C1340      C1560   1.401       .  A
C1340      C1341   1.398       .  A
C1340      C1509   1.489       .  S
C1341      H1344   1.084       .  S
C1345      C1346   1.401       .  A
C1345      C1350   1.395       .  A
C1345      C1489   1.474       .  S
C1346      C1347   1.415       .  A
C1346      H1351   1.079       .  S
C1347      C1348   1.416       .  A
C1347      C1356   1.507       .  S
C1348      C1349   1.403       .  A
C1348      H1352   1.079       .  S
C1349      C1350   1.402       .  A
C1349      C1502   1.490       .  S
C1350      H1353   1.084       .  S
C1354      C1576   1.404       .  A
C1354      C1359   1.397       .  A
C1354      C1472   1.485       .  S
C1355      C1575   1.404   1_554  A
C1355      C1356   1.417       .  A
C1355      H1360   1.079       .  S
C1356      C1357   1.416       .  A
C1357      C1579   1.401   1_554  A
C1357      H1361   1.079       .  S
C1358      C1578   1.401       .  A
C1358      C1359   1.400       .  A
C1358      C1479   1.489       .  S
C1359      H1362   1.083       .  S
C1363      C1364   1.406       .  A
C1363      C1368   1.397       .  A
C1364      C1365   1.420       .  A
C1364      H1369   1.077       .  S
C1365      C1366   1.421       .  A
C1366      C1367   1.401       .  A
C1366      H1370   1.075       .  S
C1367      C1368   1.397       .  A
C1368      H1371   1.084       .  S
C1372      C1594   1.408       .  A
C1372      C1377   1.397       .  A
C1372      C1439   1.491       .  S
C1373      C1593   1.408   1_554  A
C1373      C1374   1.423       .  A
C1373      H1378   1.077       .  S
C1374      C1375   1.419       .  A
C1375      C1597   1.400   1_554  A
C1375      H1379   1.076       .  S
C1376      C1596   1.400       .  A
C1376      C1377   1.398       .  A
C1376      C1429   1.492       .  S
C1377      H1380   1.083       .  S
O1381      C1408   1.270   1_545  A
C1382      C1519   1.480       .  S
C1382      O1415   1.269       .  A
C1382      O1412   1.269       .  A
O1383     Mn1390   2.169       .  S
O1383     Mn1401   2.111       .  S
O1383     Mn1405   2.172       .  S
O1384      C1394   1.274       .  A
O1384     Mn1418   2.115       .  S
O1385      C1408   1.274       .  A
O1385     Mn1401   2.106       .  S
O1386      C1413   1.254       .  A
O1386     Mn1405   2.120       .  S
O1387     Mn1407   1.966       .  S
O1387      C1403   1.216       .  S
C1388      C1499   1.479       .  S
C1388      O1391   1.254       .  A
C1388      O1414   1.214       .  S
O1389     Mn1390   2.174       .  S
O1389     Mn1423   2.117       .  S
O1389     Mn1405   2.176       .  S
Mn1390     O1395   2.114       .  S
O1392      C1394   1.267       .  A
O1392     Mn1399   2.072       .  S
C1393      C1482   1.479       .  S
C1393      O1419   1.254       .  A
C1393      O1406   1.215       .  S
C1394      C1539   1.479       .  S
O1395      C1420   1.253       .  A
O1396     Mn1399   2.119       .  S
O1396     Mn1418   2.116       .  S
O1397     Mn1401   1.962       .  S
O1397     Mn1423   1.948       .  S
O1397      C1420   1.215       .  S
C1398      C1462   1.486       .  S
C1398      O1400   1.270       .  A
Mn1399     O1412   2.094       .  S
O1400     Mn1423   2.087       .  S
Mn1401     O1417   2.075       .  S
Mn1401     O1411   1.947       .  S
O1402      C1404   1.276   1_545  A
C1403      C1449   1.478       .  S
C1403      O1421   1.255       .  A
C1404      C1469   1.486       .  S
C1404      O1417   1.268       .  A
O1406     Mn1409   1.962       .  S
Mn1407     O1425   1.951       .  S
C1408      C1492   1.495       .  S
Mn1409     O1416   2.084       .  S
Mn1409     O1424   2.105       .  S
Mn1409     O1414   1.946       .  S
C1410      C1442   1.482       .  S
C1410      O1426   1.272       .  A
O1411     Mn1423   1.958       .  S
O1411      C1413   1.214       .  S
C1413      C1532   1.479       .  S
O1415     Mn1418   2.096       .  S
C1420      C1512   1.476       .  S
O1422      C1427   1.254       .  A
Mn1423     O1426   2.111       .  S
O1425      C1427   1.214       .  S
C1427      C1432   1.480       .  S
C1428      C1429   1.413       .  A
C1428      C1433   1.405       .  A
C1428      F1656   1.357       .  S
C1429      C1430   1.407   1_655  A
C1430      C1431   1.389       .  A
C1431      C1432   1.409   1_455  A
C1432      C1433   1.405       .  A
C1433      F1434   1.358       .  S
F1435      C1649   1.357   1_554  S
C1438      C1439   1.408       .  A
C1438      C1443   1.407       .  A
C1438      F1666   1.357       .  S
C1439      C1440   1.410   1_655  A
C1440      C1441   1.393       .  A
C1440      F1447   1.358       .  S
C1441      C1442   1.404   1_455  A
C1441      F1446   1.359       .  S
C1442      C1443   1.409       .  A
C1443      F1444   1.355       .  S
F1445      C1659   1.357       .  S
C1448      C1449   1.406       .  A
C1448      C1453   1.405       .  A
C1448      F1455   1.358       .  S
C1450      C1451   1.391       .  A
C1450      F1457   1.357       .  S
C1451      F1456   1.358       .  S
C1452      C1453   1.412       .  A
C1453      F1454   1.357       .  S
C1458      C1463   1.403       .  A
C1458      F1465   1.358       .  S
C1459      C1460   1.406       .  A
C1460      C1461   1.396       .  A
C1460      F1467   1.358       .  S
C1461      C1462   1.409       .  A
C1461      F1466   1.358       .  S
C1463      F1464   1.354       .  S
C1468      C1469   1.411       .  A
C1468      C1473   1.396       .  A
C1468      F1475   1.358       .  S
C1469      C1470   1.407       .  A
C1470      C1471   1.403       .  A
C1471      C1472   1.407       .  A
C1472      C1473   1.405       .  A
C1473      F1474   1.358       .  S
C1478      C1479   1.405       .  A
C1478      C1483   1.389       .  A
C1479      C1480   1.413       .  A
C1480      C1481   1.405       .  A
C1480      F1708   1.357       .  S
C1481      C1482   1.405       .  A
C1481      F1486   1.358       .  S
C1482      C1483   1.410       .  A
F1487      C1701   1.357   1_554  S
C1488      C1489   1.401       .  A
C1488      C1493   1.398       .  A
C1488      F1495   1.358       .  S
C1490      C1491   1.401       .  A
C1490      F1497   1.358       .  S
C1491      F1496   1.358       .  S
C1492      C1493   1.413       .  A
C1493      F1494   1.355       .  S
C1498      C1499   1.409       .  A
C1498      C1503   1.392       .  A
C1498      F1505   1.358       .  S
C1499      C1500   1.405       .  A
C1500      C1501   1.404       .  A
C1500      F1507   1.358   1_565  S
C1501      C1502   1.413       .  A
C1501      F1506   1.358   1_565  S
C1502      C1503   1.406       .  A
C1503      F1504   1.358       .  S
C1508      C1509   1.413       .  A
C1508      C1513   1.404       .  A
C1508      F1736   1.357       .  S
C1509      C1510   1.407       .  A
C1510      C1511   1.388       .  A
C1510      F1517   1.358       .  S
C1511      C1512   1.408       .  A
C1511      F1516   1.358       .  S
C1512      C1513   1.405       .  A
C1513      F1514   1.358       .  S
F1515      C1729   1.357   1_554  S
C1518      C1519   1.404       .  A
C1518      C1523   1.395       .  A
C1518      F1525   1.358       .  S
C1519      C1520   1.409       .  A
C1520      C1521   1.402       .  A
C1520      F1527   1.353       .  S
C1521      C1522   1.404       .  A
C1521      F1747   1.358       .  S
C1522      C1523   1.409       .  A
C1523      F1524   1.358       .  S
F1526      C1742   1.358       .  S
C1528      C1529   1.405       .  A
C1528      C1533   1.391       .  A
C1528      F1535   1.358       .  S
C1529      C1530   1.413       .  A
C1530      C1531   1.405       .  A
C1530      F1537   1.358       .  S
C1531      C1532   1.405       .  A
C1531      F1536   1.358       .  S
C1532      C1533   1.408       .  A
C1533      F1534   1.358       .  S
C1538      C1539   1.406       .  A
C1538      C1543   1.403       .  A
C1538      F1545   1.356       .  S
C1539      C1540   1.408       .  A
C1540      C1541   1.395       .  A
C1540      F1547   1.359       .  S
C1541      C1542   1.406       .  A
C1541      F1546   1.358       .  S
C1542      C1543   1.409       .  A
C1543      F1544   1.358       .  S
C1548      C1549   1.405       .  A
C1548      C1553   1.398       .  A
C1548      C1763   1.485       .  S
C1549      C1550   1.417       .  A
C1549      H1554   1.078       .  S
C1550      C1551   1.417       .  A
C1550      C1559   1.509       .  S
C1551      C1552   1.400       .  A
C1551      H1555   1.079       .  S
C1552      C1553   1.399       .  A
C1552      C1750   1.490       .  S
C1553      H1556   1.083       .  S
C1557      C1562   1.395       .  A
C1557      C1743   1.483       .  S
C1558      C1559   1.419       .  A
C1558      H1563   1.078       .  S
C1559      C1560   1.417       .  A
C1560      H1564   1.079       .  S
C1561      C1562   1.398       .  A
C1561      C1730   1.489       .  S
C1562      H1565   1.084       .  S
C1566      C1567   1.401       .  A
C1566      C1571   1.395       .  A
C1566      C1710   1.474       .  S
C1567      C1568   1.415       .  A
C1567      H1572   1.079       .  S
C1568      C1569   1.416       .  A
C1568      C1577   1.507       .  S
C1569      C1570   1.403       .  A
C1569      H1573   1.079       .  S
C1570      C1571   1.402       .  A
C1570      C1723   1.490       .  S
C1571      H1574   1.084       .  S
C1575      C1580   1.397       .  A
C1575      C1693   1.485       .  S
C1576      C1577   1.417       .  A
C1576      H1581   1.079       .  S
C1577      C1578   1.416       .  A
C1578      H1582   1.079       .  S
C1579      C1580   1.400       .  A
C1579      C1700   1.489       .  S
C1580      H1583   1.083       .  S
C1584      C1585   1.406       .  A
C1584      C1589   1.397       .  A
C1585      C1586   1.420       .  A
C1585      H1590   1.077       .  S
C1586      C1587   1.421       .  A
C1587      C1588   1.401       .  A
C1587      H1591   1.075       .  S
C1588      C1589   1.397       .  A
C1589      H1592   1.084       .  S
C1593      C1598   1.397       .  A
C1593      C1660   1.491       .  S
C1594      C1595   1.423       .  A
C1594      H1599   1.077       .  S
C1595      C1596   1.419       .  A
C1596      H1600   1.076       .  S
C1597      C1598   1.398       .  A
C1597      C1650   1.492       .  S
C1598      H1601   1.083       .  S
O1602      C1629   1.270   1_545  A
C1603      C1740   1.480       .  S
C1603      O1636   1.269       .  A
C1603      O1633   1.269       .  A
O1604     Mn1611   2.169       .  S
O1604     Mn1622   2.111       .  S
O1604     Mn1626   2.172       .  S
O1605      C1615   1.274       .  A
O1605     Mn1639   2.115       .  S
O1606      C1629   1.274       .  A
O1606     Mn1622   2.106       .  S
O1607      C1634   1.254       .  A
O1607     Mn1626   2.120       .  S
O1608     Mn1628   1.966       .  S
O1608      C1624   1.216       .  S
C1609      C1720   1.479       .  S
C1609      O1612   1.254       .  A
C1609      O1635   1.214       .  S
O1610     Mn1611   2.174       .  S
O1610     Mn1644   2.117       .  S
O1610     Mn1626   2.176       .  S
Mn1611     O1616   2.114       .  S
O1613      C1615   1.267       .  A
O1613     Mn1620   2.072       .  S
C1614      C1703   1.479       .  S
C1614      O1640   1.254       .  A
C1614      O1627   1.215       .  S
C1615      C1760   1.479       .  S
O1616      C1641   1.253       .  A
O1617     Mn1620   2.119       .  S
O1617     Mn1639   2.116       .  S
O1618     Mn1622   1.962       .  S
O1618     Mn1644   1.948       .  S
O1618      C1641   1.215       .  S
C1619      C1683   1.486       .  S
C1619      O1621   1.270       .  A
Mn1620     O1633   2.094       .  S
O1621     Mn1644   2.087       .  S
Mn1622     O1638   2.075       .  S
Mn1622     O1632   1.947       .  S
O1623      C1625   1.276   1_545  A
C1624      C1670   1.478       .  S
C1624      O1642   1.255       .  A
C1625      C1690   1.486       .  S
C1625      O1638   1.268       .  A
O1627     Mn1630   1.962       .  S
Mn1628     O1646   1.951       .  S
C1629      C1713   1.495       .  S
Mn1630     O1637   2.084       .  S
Mn1630     O1645   2.105       .  S
Mn1630     O1635   1.946       .  S
C1631      C1663   1.482       .  S
C1631      O1647   1.272       .  A
O1632     Mn1644   1.958       .  S
O1632      C1634   1.214       .  S
C1634      C1753   1.479       .  S
O1636     Mn1639   2.096       .  S
C1641      C1733   1.476       .  S
O1643      C1648   1.254       .  A
Mn1644     O1647   2.111       .  S
O1646      C1648   1.214       .  S
C1648      C1653   1.480       .  S
C1649      C1650   1.413       .  A
C1649      C1654   1.405       .  A
C1650      C1651   1.407   1_655  A
C1651      C1652   1.389       .  A
C1652      C1653   1.409   1_455  A
C1653      C1654   1.405       .  A
C1654      F1655   1.358       .  S
C1659      C1660   1.408       .  A
C1659      C1664   1.407       .  A
C1660      C1661   1.410   1_655  A
C1661      C1662   1.393       .  A
C1661      F1668   1.358       .  S
C1662      C1663   1.404   1_455  A
C1662      F1667   1.359       .  S
C1663      C1664   1.409       .  A
C1664      F1665   1.355       .  S
C1669      C1670   1.406       .  A
C1669      C1674   1.405       .  A
C1669      F1676   1.358       .  S
C1671      C1672   1.391       .  A
C1671      F1678   1.357       .  S
C1672      F1677   1.358       .  S
C1673      C1674   1.412       .  A
C1674      F1675   1.357       .  S
C1679      C1684   1.403       .  A
C1679      F1686   1.358       .  S
C1680      C1681   1.406       .  A
C1681      C1682   1.396       .  A
C1681      F1688   1.358       .  S
C1682      C1683   1.409       .  A
C1682      F1687   1.358       .  S
C1684      F1685   1.354       .  S
C1689      C1690   1.411       .  A
C1689      C1694   1.396       .  A
C1689      F1696   1.358       .  S
C1690      C1691   1.407       .  A
C1691      C1692   1.403       .  A
C1692      C1693   1.407       .  A
C1693      C1694   1.405       .  A
C1694      F1695   1.358       .  S
C1699      C1700   1.405       .  A
C1699      C1704   1.389       .  A
C1700      C1701   1.413       .  A
C1701      C1702   1.405       .  A
C1702      C1703   1.405       .  A
C1702      F1707   1.358       .  S
C1703      C1704   1.410       .  A
C1709      C1710   1.401       .  A
C1709      C1714   1.398       .  A
C1709      F1716   1.358       .  S
C1711      C1712   1.401       .  A
C1711      F1718   1.358       .  S
C1712      F1717   1.358       .  S
C1713      C1714   1.413       .  A
C1714      F1715   1.355       .  S
C1719      C1720   1.409       .  A
C1719      C1724   1.392       .  A
C1719      F1726   1.358       .  S
C1720      C1721   1.405       .  A
C1721      C1722   1.404       .  A
C1721      F1728   1.358   1_565  S
C1722      C1723   1.413       .  A
C1722      F1727   1.358   1_565  S
C1723      C1724   1.406       .  A
C1724      F1725   1.358       .  S
C1729      C1730   1.413       .  A
C1729      C1734   1.404       .  A
C1730      C1731   1.407       .  A
C1731      C1732   1.388       .  A
C1731      F1738   1.358       .  S
C1732      C1733   1.408       .  A
C1732      F1737   1.358       .  S
C1733      C1734   1.405       .  A
C1734      F1735   1.358       .  S
C1739      C1740   1.404       .  A
C1739      C1744   1.395       .  A
C1739      F1746   1.358       .  S
C1740      C1741   1.409       .  A
C1741      C1742   1.402       .  A
C1741      F1748   1.353       .  S
C1742      C1743   1.404       .  A
C1743      C1744   1.409       .  A
C1744      F1745   1.358       .  S
C1749      C1750   1.405       .  A
C1749      C1754   1.391       .  A
C1749      F1756   1.358       .  S
C1750      C1751   1.413       .  A
C1751      C1752   1.405       .  A
C1751      F1758   1.358       .  S
C1752      C1753   1.405       .  A
C1752      F1757   1.358       .  S
C1753      C1754   1.408       .  A
C1754      F1755   1.358       .  S
C1759      C1760   1.406       .  A
C1759      C1764   1.403       .  A
C1759      F1766   1.356       .  S
C1760      C1761   1.408       .  A
C1761      C1762   1.395       .  A
C1761      F1768   1.359       .  S
C1762      C1763   1.406       .  A
C1762      F1767   1.358       .  S
C1763      C1764   1.409       .  A
C1764      F1765   1.358       .  S
