geometry optimzed in LAMMPS
_audit_creation_date              2020-11-30 
_audit_creation_method            'lammps2cif' 
_symmetry_space_group_name_H-M    'P1' 
_symmetry_Int_Tables_number       1 
_symmetry_cell_setting            triclinic 
loop_ 
_symmetry_equiv_pos_as_xyz 
  x,y,z 
_cell_length_a                    28.256912999138457 
_cell_length_b                    29.333568906428077 
_cell_length_c                    33.369791370709876 
_cell_angle_alpha                 90.04708695284369 
_cell_angle_beta                  90.13264317225801 
_cell_angle_gamma                 119.31806884827755 
loop_ 
_atom_site_label 
_atom_site_type_symbol 
_atom_site_fract_x 
_atom_site_fract_y 
_atom_site_fract_z 
_atom_site_charge 
C1          C  0.17345691  0.33828575  0.36788641    -0.03210
C2          C  0.34855503  0.17799056  0.19003380    -0.03210
C3          C  0.17304748  0.32496830  0.19532228    -0.03210
C4          C  0.34217780  0.17118063  0.37692854    -0.03210
O5          O  0.08764500  0.42187988  0.48524671    -0.88900
C6          C  0.34211078  0.39039414  0.09669684     1.11140
O7          O  0.05115537  0.48276565  0.03342747    -1.36710
O8          O  0.35671866  0.36132219  0.48891040    -0.90380
O9          O  0.15737863  0.50328503  0.49127823    -0.91050
O10         O  0.07811194  0.04617432  0.44820629    -0.79870
O11         O  0.46870988  0.38353078  0.99403592    -1.01960
C12         C  0.43342918  0.04599805  0.46110532     1.21190
O13         O  0.02897343  0.06298270  0.03405973    -1.36850
Mn14       Mn  0.00854589  0.00219159  0.07909720     1.81790
O15         O  0.46470314  0.03001292  0.44695729    -0.78940
O16         O  0.33888475  0.42718096  0.49219753    -0.88340
C17         C  0.43463070  0.04548910  0.10722554     1.12270
C18         C  0.33302178  0.38540963  0.47609664     1.07000
O19         O  0.07732811  0.04324802  0.12237460    -0.79880
O20         O  0.44570402  0.46111476  0.03354823    -1.33580
O21         O  0.12682756  0.07910922  0.07331327    -0.99090
C22         C  0.06621984  0.16947995  0.47595553     1.05710
Mn23       Mn  0.38503593  0.98297983  0.03553705     1.48570
O24         O  0.10408704  0.16646953  0.49346340    -0.88290
Mn25       Mn  0.13776879  0.03727422  0.03517000     1.49560
O26         O  0.08632604  0.41459976  0.07555292    -0.92170
C27         C  0.46550096  0.38796941  0.45779415     1.18900
C28         C  0.12934168  0.45108489  0.09080822     1.10960
Mn29       Mn  0.00813326  0.00267503  0.48812835     1.80970
O30         O  0.42718156  0.04245513  0.07121141    -0.97320
Mn31       Mn  0.03048956  0.40364096  0.03134043     1.49260
C32         C  0.13294863  0.46008624  0.47399280     1.07480
Mn33       Mn  0.97428859  0.09353655  0.03271760     1.49930
C34         C  0.05733168  0.16310802  0.09479679     1.10390
O35         O  0.13027147  0.08352155  0.49763296    -1.03120
O36         O  0.34624886  0.43284231  0.08371770    -0.92790
C37         C  0.12542824  0.07874589  0.46125760     1.21670
O38         O  0.42644011  0.04024978  0.49686248    -1.03510
O39         O  0.36113140  0.36491766  0.07873736    -0.90910
O40         O  0.01346238  0.14616230  0.07608233    -0.90520
O41         O  0.15339342  0.49756260  0.07870761    -0.90540
Mn42       Mn  0.41463296  0.37696039  0.03306284     1.47860
O43         O  0.46619123  0.02913323  0.12003518    -0.79010
C44         C  0.12474651  0.07426998  0.10944665     1.14720
O45         O  0.48105400  0.43478754  0.44590363    -0.77750
O46         O  0.48236363  0.43491253  0.11898436    -0.77360
Mn47       Mn  0.11139569  0.12102542  0.03689906     1.51060
O48         O  0.01714346  0.14570729  0.48702683    -0.89710
O49         O  0.47030505  0.38260654  0.07075122    -0.97240
O50         O  0.09715745  0.15796912  0.08377210    -0.92250
C51         C  0.46827942  0.38860462  0.10711330     1.12510
C52         C  0.40426702  0.07614429  0.39718513    -0.09870
C53         C  0.41119408  0.07837748  0.43909779     0.06320
C54         C  0.38674803  0.10428252  0.46017655    -0.03640
C55         C  0.36038575  0.12814133  0.43973356    -0.08090
C56         C  0.35722827  0.12948217  0.39736257     0.05440
C57         C  0.36955149  0.09245557  0.37844632    -0.03120
Br58       Br  0.33029022  0.04948224  0.33332588    -0.02810
H59         H  0.41673497  0.05235328  0.38018610     0.09350
H60         H  0.34756871  0.15086905  0.45751862     0.07370
Br61       Br  0.89322575  0.11683220  0.51686021    -0.03240
C62         C  0.18184795  0.08767478  0.39834595    -0.09870
C63         C  0.17687593  0.10730105  0.43560989     0.06320
C64         C  0.22443395  0.15189361  0.45002271    -0.03640
C65         C  0.27413885  0.17302272  0.42911860    -0.08090
C66         C  0.28138690  0.15170599  0.39287644     0.05440
C67         C  0.23224560  0.10806965  0.37754928    -0.03120
Br68       Br  0.22675823  0.07282091  0.32799404    -0.02810
H69         H  0.14626046  0.05476572  0.38565126     0.09350
H70         H  0.30829130  0.20565854  0.44334323     0.07370
Br71       Br  0.22620846  0.18744177  0.49890285    -0.03240
C72         C  0.37405148  0.27448798  0.38119306    -0.09870
C73         C  0.38156093  0.23129787  0.39280270     0.06320
C74         C  0.42447711  0.24638286  0.42114287    -0.03640
C75         C  0.44506098  0.29358008  0.44390611    -0.08090
C76         C  0.43894979  0.33669030  0.43190070     0.05440
C77         C  0.40488469  0.32643327  0.39780139    -0.03120
Br78       Br  0.40030609  0.38207739  0.37173688    -0.02810
H79         H  0.34495065  0.26901388  0.35824224     0.09350
H80         H  0.47117237  0.29854833  0.46920887     0.07370
Br81       Br  0.46994584  0.21528704  0.42022471    -0.03240
C82         C  0.07979636  0.18337433  0.16582890    -0.09870
C83         C  0.06352198  0.19420025  0.12913104     0.06320
C84         C  0.06102743  0.23971589  0.12371775    -0.03640
C85         C  0.08749931  0.27898309  0.15097192    -0.08090
C86         C  0.12190363  0.27526695  0.18043969     0.05440
C87         C  0.10788343  0.22404248  0.19302761    -0.03120
Br88       Br  0.13305259  0.20724222  0.24168866    -0.02810
H89         H  0.07661610  0.14552503  0.17116739     0.09350
H90         H  0.08678288  0.31438389  0.14399953     0.07370
Br91       Br  0.03698927  0.25622051  0.07442256    -0.03240
C92         C  0.18828342  0.41816676  0.10870148    -0.09870
C93         C  0.15478290  0.43689144  0.12186773     0.06320
C94         C  0.13323828  0.42556561  0.16022779    -0.03640
C95         C  0.14588048  0.39530199  0.18496290    -0.08090
C96         C  0.17621257  0.37130445  0.17089196     0.05440
C97         C  0.19238611  0.38001836  0.12982873    -0.03120
Br98       Br  0.19142551  0.32920306  0.09266293    -0.02810
H99         H  0.19994657  0.42349588  0.07788969     0.09350
H100        H  0.12561017  0.38551459  0.21361404     0.07370
Br101      Br  0.07840129  0.44132047  0.17738550    -0.03240
C102        C  0.27862615  0.31278644  0.13384368    -0.09870
C103        C  0.31092708  0.36683391  0.13306096     0.06320
C104        C  0.31185826  0.39469688  0.16754948    -0.03640
C105        C  0.27537730  0.36801845  0.19808259    -0.08090
C106        C  0.22709467  0.32211936  0.18909891     0.05440
C107        C  0.23529230  0.29010337  0.16048886    -0.03120
Br108      Br  0.19970368  0.21664712  0.15601392    -0.02810
H109        H  0.28259716  0.28890868  0.11067768     0.09350
H110        H  0.28305677  0.38548800  0.22717350     0.07370
Br111      Br  0.36264303  0.46602794  0.17739372    -0.03240
C112        C  0.34072397  0.09853598  0.14540205    -0.09870
C113        C  0.37288346  0.14073829  0.17234371     0.06320
C114        C  0.42510748  0.14374259  0.18062472    -0.03640
C115        C  0.44138614  0.10967512  0.16213623    -0.08090
C116        C  0.41124198  0.07387817  0.13220351     0.05440
C117        C  0.35973719  0.06866312  0.12456331    -0.03120
Br118      Br  0.31052715  0.01826613  0.08726568    -0.02810
H119        H  0.29895407  0.08665683  0.13929517     0.09350
H120        H  0.47892311  0.11141344  0.17097292     0.07370
Br121      Br  0.47805261  0.18615089  0.21971760    -0.03240
C122        C  0.22712775  0.13319374  0.11121169    -0.09870
C123        C  0.17906250  0.10134216  0.13300682     0.06320
C124        C  0.18682661  0.09724518  0.17453255    -0.03640
C125        C  0.24012718  0.12032451  0.19165955    -0.08090
C126        C  0.28855889  0.15559852  0.17053430     0.05440
C127        C  0.27953004  0.16073056  0.12883595    -0.03120
Br128      Br  0.33664475  0.19764689  0.09087083    -0.02810
H129        H  0.22421815  0.13750782  0.07926237     0.09350
H130        H  0.24278284  0.11071583  0.22250768     0.07370
Br131      Br  0.12670054  0.56613958  0.21054789    -0.03240
C132        C  0.37641945  0.28081847  0.18467710    -0.09870
C133        C  0.38692459  0.23872073  0.17624779     0.06320
C134        C  0.43785040  0.25812184  0.15644011    -0.03640
C135        C  0.45126723  0.29702828  0.12641286    -0.08090
C136        C  0.44249876  0.33968511  0.13416499     0.05440
C137        C  0.40839755  0.33200539  0.16767975    -0.03120
Br138      Br  0.41764285  0.38998999  0.19900141    -0.02810
H139        H  0.34816861  0.27702903  0.20703197     0.09350
H140        H  0.47986185  0.30163028  0.10338668     0.07370
Br141      Br  0.49610251  0.29556797  0.19447358    -0.03240
C142        C  0.31382896  0.19053319  0.30654381    -0.09870
C143        C  0.34548210  0.17393669  0.32865632     0.06320
C144        C  0.37918728  0.16244072  0.30368325    -0.03640
C145        C  0.36869824  0.15327950  0.26209588    -0.08090
C146        C  0.34357459  0.17573166  0.23890957     0.05440
C147        C  0.31430021  0.19418076  0.26380495    -0.03120
Br148      Br  0.26374942  0.21568973  0.24564639    -0.02810
H149        H  0.28679533  0.19999131  0.32279492     0.09350
H150        H  0.38200872  0.12856708  0.24845660     0.07370
Br151      Br  0.44568240  0.16519381  0.32002837    -0.03240
C152        C  0.11427153  0.23853163  0.37715975    -0.09870
C153        C  0.12741011  0.28941974  0.38921095     0.06320
C154        C  0.10299493  0.29312357  0.42525697    -0.03640
C155        C  0.08767324  0.25510758  0.45414010    -0.08090
C156        C  0.08180238  0.20700850  0.44399073     0.05440
C157        C  0.09092539  0.19694807  0.40435245    -0.03120
Br158      Br  0.07342458  0.12853748  0.38643877    -0.02810
H159        H  0.12505973  0.23179028  0.34753084     0.09350
H160        H  0.07394717  0.26076661  0.48311173     0.07370
Br161      Br  0.06911578  0.33474163  0.43105263    -0.03240
C162        C  0.19742171  0.39599952  0.42780981    -0.09870
C163        C  0.17779451  0.38802628  0.38814419     0.06320
C164        C  0.15489262  0.41998864  0.37441105    -0.03640
C165        C  0.14595804  0.45043140  0.40246969    -0.08090
C166        C  0.16219058  0.45231263  0.44206423     0.05440
C167        C  0.19497042  0.43172514  0.45271041    -0.03120
Br168      Br  0.22952939  0.44417655  0.00349937    -0.02810
H169        H  0.21032118  0.37058121  0.44134583     0.09350
H170        H  0.12039602  0.46707599  0.39471841     0.07370
Br171      Br  0.12167440  0.41884058  0.32355778    -0.03240
C172        C  0.26986232  0.31357977  0.42868019    -0.09870
C173        C  0.30067623  0.36673394  0.43877680     0.06320
C174        C  0.30436742  0.40285977  0.40978239    -0.03640
C175        C  0.27665565  0.38643608  0.37392596    -0.08090
C176        C  0.22919893  0.33784905  0.37344309     0.05440
C177        C  0.23454142  0.29880614  0.39527229    -0.03120
Br178      Br  0.22215319  0.23613263  0.36863428    -0.02810
H179        H  0.27372048  0.28431171  0.44585168     0.09350
H180        H  0.28224221  0.41750129  0.35443620     0.07370
Br181      Br  0.32067132  0.97072743  0.42294203    -0.03240
C182        C  0.20405778  0.38237669  0.30136245    -0.09870
C183        C  0.16457368  0.34026278  0.32326261     0.06320
C184        C  0.11676058  0.30653147  0.30252596    -0.03640
C185        C  0.11882810  0.30303891  0.26121892    -0.08090
C186        C  0.16714983  0.33529359  0.23997563     0.05440
C187        C  0.20423891  0.38216198  0.26029181    -0.03120
Br188      Br  0.24802931  0.45167815  0.23763248    -0.02810
H189        H  0.22937722  0.41927004  0.31573587     0.09350
H190        H  0.08161247  0.27663486  0.24605038     0.07370
Br191      Br  0.04659422  0.28334919  0.32507609    -0.03240
C192        C  0.17346154  0.33830243  0.86789119    -0.03210
C193        C  0.34854555  0.17798943  0.69002757    -0.03210
C194        C  0.17302843  0.32496354  0.69532680    -0.03210
C195        C  0.34221041  0.17119217  0.87692424    -0.03210
O196        O  0.08764980  0.42190207  0.98524455    -0.88900
C197        C  0.34209536  0.39038182  0.59670187     1.11140
O198        O  0.05113901  0.48276152  0.53342187    -1.36710
O199        O  0.35674018  0.36134167  0.98889973    -0.90380
O200        O  0.15739799  0.50329602  0.99128673    -0.91050
O201        O  0.07814630  0.04618614  0.94821462    -0.79870
O202        O  0.46869543  0.38352410  0.49403739    -1.01960
C203        C  0.43346382  0.04601035  0.96110192     1.21190
O204        O  0.02894826  0.06297804  0.53405545    -1.36850
Mn205      Mn  0.00853212  0.00218928  0.57909382     1.81790
O206        O  0.46473890  0.03002555  0.94695636    -0.78940
O207        O  0.33890352  0.42719734  0.99219952    -0.88340
C208        C  0.43460718  0.04547361  0.60722709     1.12270
C209        C  0.33304305  0.38543130  0.97609118     1.07000
O210        O  0.07732004  0.04325466  0.62236508    -0.79880
O211        O  0.44568448  0.46110574  0.53354961    -1.33580
O212        O  0.12681690  0.07911653  0.57330162    -0.99090
C213        C  0.06626345  0.16947269  0.97595625     1.05710
Mn214      Mn  0.38501179  0.98296469  0.53553789     1.48570
O215        O  0.10412939  0.16647971  0.99348106    -0.88290
Mn216      Mn  0.13775069  0.03727155  0.53516057     1.49560
O217        O  0.08631613  0.41460026  0.57555157    -0.92170
C218        C  0.46552316  0.38797905  0.95779219     1.18900
C219        C  0.12933146  0.45108673  0.59080563     1.10960
Mn220      Mn  0.00816035  0.00268399  0.98813087     1.80970
O221        O  0.42715518  0.04243863  0.57121350    -0.97320
Mn222      Mn  0.03047947  0.40363603  0.53133947     1.49260
C223        C  0.13295331  0.46010681  0.97399048     1.07480
Mn224      Mn  0.97425734  0.09352872  0.53272283     1.49930
C225        C  0.05731396  0.16310695  0.59479381     1.10390
O226        O  0.13030418  0.08353269  0.99764334    -1.03120
O227        O  0.34622599  0.43282459  0.58371738    -0.92790
C228        C  0.12546233  0.07875776  0.96126729     1.21670
O229        O  0.42646883  0.04025946  0.99685885    -1.03510
O230        O  0.36112327  0.36490843  0.57874703    -0.90910
O231        O  0.01343323  0.14614863  0.57609218    -0.90520
O232        O  0.15338186  0.49756447  0.57870271    -0.90540
Mn233      Mn  0.41462039  0.37695220  0.53306807     1.47860
O234        O  0.46617574  0.02912600  0.62003453    -0.79010
C235        C  0.12473745  0.07427814  0.60943542     1.14720
O236        O  0.48108347  0.43479918  0.94590317    -0.77750
O237        O  0.48236131  0.43491416  0.61898402    -0.77360
Mn238      Mn  0.11136990  0.12102378  0.53688506     1.51060
O239        O  0.01718361  0.14569635  0.98701686    -0.89710
O240        O  0.47029925  0.38260776  0.57075131    -0.97240
O241        O  0.09714125  0.15797769  0.58375645    -0.92250
C242        C  0.46827797  0.38860637  0.60711338     1.12510
C243        C  0.40429763  0.07615254  0.89718210    -0.09870
C244        C  0.41124275  0.07840070  0.93909333     0.06320
C245        C  0.38682137  0.10432838  0.96017229    -0.03640
C246        C  0.36045631  0.12818496  0.93973080    -0.08090
C247        C  0.35727286  0.12950359  0.89736051     0.05440
C248        C  0.36957960  0.09246412  0.87844744    -0.03120
Br249      Br  0.33029413  0.04947723  0.83333932    -0.02810
H250        H  0.41674882  0.05234735  0.88018472     0.09350
H251        H  0.34765310  0.15092458  0.95751467     0.07370
Br252      Br  0.89333262  0.11690748  0.01685225    -0.03240
C253        C  0.18188136  0.08768215  0.89835507    -0.09870
C254        C  0.17691200  0.10731020  0.93561916     0.06320
C255        C  0.22447296  0.15190231  0.95002967    -0.03640
C256        C  0.27417643  0.17303043  0.92912255    -0.08090
C257        C  0.28142056  0.15171408  0.89287873     0.05440
C258        C  0.23227646  0.10807774  0.87755419    -0.03120
Br259      Br  0.22677812  0.07283207  0.82799514    -0.02810
H260        H  0.14629305  0.05477156  0.88566267     0.09350
H261        H  0.30833101  0.20566675  0.94334499     0.07370
Br262      Br  0.22625360  0.18745147  0.99891040    -0.03240
C263        C  0.37407204  0.27449827  0.88119166    -0.09870
C264        C  0.38159365  0.23131247  0.89279280     0.06320
C265        C  0.42452436  0.24640392  0.92112085    -0.03640
C266        C  0.44510155  0.29359593  0.94389071    -0.08090
C267        C  0.43897861  0.33670283  0.93189443     0.05440
C268        C  0.40490412  0.32644357  0.89780048    -0.03120
Br269      Br  0.40030658  0.38208385  0.87174653    -0.02810
H270        H  0.34496166  0.26902117  0.85824814     0.09350
H271        H  0.47120628  0.29855935  0.96919610     0.07370
Br272      Br  0.47001032  0.21532379  0.92017366    -0.03240
C273        C  0.07978795  0.18337202  0.66582566    -0.09870
C274        C  0.06351389  0.19420131  0.62912889     0.06320
C275        C  0.06101393  0.23971489  0.62372007    -0.03640
C276        C  0.08747269  0.27897605  0.65098213    -0.08090
C277        C  0.12188241  0.27526117  0.68044636     0.05440
C278        C  0.10786876  0.22403662  0.69302876    -0.03120
Br279      Br  0.13303507  0.20723369  0.74169021    -0.02810
H280        H  0.07660917  0.14552280  0.67116127     0.09350
H281        H  0.08674896  0.31437526  0.64401661     0.07370
Br282      Br  0.03698628  0.25622405  0.57442184    -0.03240
C283        C  0.18824856  0.41813923  0.60869281    -0.09870
C284        C  0.15477338  0.43689029  0.62186391     0.06320
C285        C  0.13323988  0.42557749  0.66022771    -0.03640
C286        C  0.14587286  0.39530603  0.68496240    -0.08090
C287        C  0.17619328  0.37129652  0.67089142     0.05440
C288        C  0.19235488  0.37999665  0.62982546    -0.03120
Br289      Br  0.19139867  0.32917568  0.59266750    -0.02810
H290        H  0.19989383  0.42345095  0.57787826     0.09350
H291        H  0.12560757  0.38552644  0.71361555     0.07370
Br292      Br  0.07842545  0.44136016  0.67739180    -0.03240
C293        C  0.27860865  0.31277731  0.63385034    -0.09870
C294        C  0.31091023  0.36682416  0.63306612     0.06320
C295        C  0.31184102  0.39468900  0.66755361    -0.03640
C296        C  0.27535827  0.36801291  0.69808651    -0.08090
C297        C  0.22707580  0.32211354  0.68910388     0.05440
C298        C  0.23527468  0.29009603  0.66049571    -0.03120
Br299      Br  0.19969536  0.21663992  0.65602755    -0.02810
H300        H  0.28258078  0.28889828  0.61068592     0.09350
H301        H  0.28303724  0.38548298  0.72717721     0.07370
Br302      Br  0.36263147  0.46601805  0.67739921    -0.03240
C303        C  0.34070226  0.09852064  0.64540749    -0.09870
C304        C  0.37287079  0.14073520  0.67233697     0.06320
C305        C  0.42509771  0.14374441  0.68061232    -0.03640
C306        C  0.44137367  0.10967338  0.66212754    -0.08090
C307        C  0.41122030  0.07386366  0.63220525     0.05440
C308        C  0.35971002  0.06863992  0.62457335    -0.03120
Br309      Br  0.31048514  0.01821789  0.58729744    -0.02810
H310        H  0.29892890  0.08663664  0.63930913     0.09350
H311        H  0.47891463  0.11141724  0.67095971     0.07370
Br312      Br  0.47804595  0.18615964  0.71969873    -0.03240
C313        C  0.22712359  0.13319113  0.61120019    -0.09870
C314        C  0.17905489  0.10134868  0.63299538     0.06320
C315        C  0.18681556  0.09726090  0.67452330    -0.03640
C316        C  0.24011486  0.12033776  0.69165299    -0.08090
C317        C  0.28855022  0.15560026  0.67052673     0.05440
C318        C  0.27952583  0.16072543  0.62882629    -0.03120
Br319      Br  0.33664918  0.19763273  0.59086474    -0.02810
H320        H  0.22421706  0.13749902  0.57924964     0.09350
H321        H  0.24276654  0.11073550  0.72250348     0.07370
Br322      Br  0.12668650  0.56618176  0.71053789    -0.03240
C323        C  0.37639239  0.28081034  0.68465658    -0.09870
C324        C  0.38691560  0.23872050  0.67624308     0.06320
C325        C  0.43785606  0.25813179  0.65645416    -0.03640
C326        C  0.45128299  0.29703757  0.62642430    -0.08090
C327        C  0.44249914  0.33968747  0.63416509     0.05440
C328        C  0.40837762  0.33200019  0.66766714    -0.03120
Br329      Br  0.41762371  0.38997837  0.69899692    -0.02810
H330        H  0.34811340  0.27701123  0.70698986     0.09350
H331        H  0.47989737  0.30165025  0.60341149     0.07370
Br332      Br  0.49608478  0.29558796  0.69450565    -0.03240
C333        C  0.31385109  0.19054287  0.80654447    -0.09870
C334        C  0.34550403  0.17394101  0.82865110     0.06320
C335        C  0.37919153  0.16242835  0.80367093    -0.03640
C336        C  0.36869096  0.15326825  0.76208464    -0.08090
C337        C  0.34356961  0.17572804  0.73890388     0.05440
C338        C  0.31430797  0.19418492  0.76380566    -0.03120
Br339      Br  0.26374997  0.21569182  0.74566084    -0.02810
H340        H  0.28682435  0.20000517  0.82280070     0.09350
H341        H  0.38199710  0.12855488  0.74844057     0.07370
Br342      Br  0.44568366  0.16516155  0.81999888    -0.03240
C343        C  0.11429263  0.23854325  0.87716537    -0.09870
C344        C  0.12743334  0.28942994  0.88922629     0.06320
C345        C  0.10305365  0.29312834  0.92529357    -0.03640
C346        C  0.08774088  0.25510307  0.95416495    -0.08090
C347        C  0.08185164  0.20700505  0.94399742     0.05440
C348        C  0.09095564  0.19695215  0.90435271    -0.03120
Br349      Br  0.07344489  0.12854374  0.88642488    -0.02810
H350        H  0.12506757  0.23180676  0.84753030     0.09350
H351        H  0.07403604  0.26075717  0.98314729     0.07370
Br352      Br  0.06918026  0.33473909  0.93114893    -0.03240
C353        C  0.19743573  0.39604066  0.92780081    -0.09870
C354        C  0.17778127  0.38803806  0.88814216     0.06320
C355        C  0.15484308  0.41997011  0.87441078    -0.03640
C356        C  0.14591168  0.45041790  0.90246577    -0.08090
C357        C  0.16218350  0.45233598  0.94205378     0.05440
C358        C  0.19498607  0.43177188  0.95269596    -0.03120
Br359      Br  0.22952322  0.44413238  0.50350809    -0.02810
H360        H  0.21034914  0.37063431  0.94133998     0.09350
H361        H  0.12032981  0.46704285  0.89471914     0.07370
Br362      Br  0.12159642  0.41878844  0.82356315    -0.03240
C363        C  0.26989392  0.31361399  0.92866529    -0.09870
C364        C  0.30069955  0.36676701  0.93876942     0.06320
C365        C  0.30438148  0.40289898  0.90978607    -0.03640
C366        C  0.27666157  0.38650054  0.87391995    -0.08090
C367        C  0.22921487  0.33788537  0.87344140     0.05440
C368        C  0.23457340  0.29884585  0.89525736    -0.03120
Br369      Br  0.22218058  0.23617034  0.86861832    -0.02810
H370        H  0.27375607  0.28434881  0.94582794     0.09350
H371        H  0.28223707  0.41747053  0.85453203     0.07370
Br372      Br  0.32068220  0.97076164  0.92296419    -0.03240
C373        C  0.20404922  0.38240050  0.80137028    -0.09870
C374        C  0.16456690  0.34026843  0.82326750     0.06320
C375        C  0.11675753  0.30652671  0.80253617    -0.03640
C376        C  0.11881775  0.30303322  0.76122782    -0.08090
C377        C  0.16713471  0.33529479  0.73998053     0.05440
C378        C  0.20422067  0.38216632  0.76029311    -0.03120
Br379      Br  0.24801713  0.45167941  0.73763038    -0.02810
H380        H  0.22928724  0.41921683  0.81568980     0.09350
H381        H  0.08160644  0.27662389  0.74606502     0.07370
Br382      Br  0.04659095  0.28331489  0.82509642    -0.03240
C383        C  0.17345692  0.83828574  0.36788641    -0.03210
C384        C  0.34855501  0.67799056  0.19003380    -0.03210
C385        C  0.17304755  0.82496835  0.19532228    -0.03210
C386        C  0.34217777  0.67118063  0.37692854    -0.03210
O387        O  0.08764505  0.92187987  0.48524674    -0.88900
C388        C  0.34211085  0.89039415  0.09669686     1.11140
O389        O  0.05115540  0.98276565  0.03342747    -1.36710
O390        O  0.35671869  0.86132219  0.48891039    -0.90380
O391        O  0.15737865  0.00328504  0.49127821    -0.91050
O392        O  0.07811192  0.54617432  0.44820630    -0.79870
O393        O  0.46870992  0.88353078  0.99403592    -1.01960
C394        C  0.43342916  0.54599806  0.46110532     1.21190
O395        O  0.02897340  0.56298270  0.03405973    -1.36850
Mn396      Mn  0.00854586  0.50219158  0.07909720     1.81790
O397        O  0.46470312  0.53001293  0.44695729    -0.78940
O398        O  0.33888476  0.92718095  0.49219754    -0.88340
C399        C  0.43463066  0.54548909  0.10722555     1.12270
C400        C  0.33302180  0.88540962  0.47609664     1.07000
O401        O  0.07732808  0.54324802  0.12237461    -0.79880
O402        O  0.44570405  0.96111476  0.03354823    -1.33580
O403        O  0.12682753  0.57910922  0.07331327    -0.99090
C404        C  0.06621982  0.66947995  0.47595553     1.05710
Mn405      Mn  0.38503591  0.48297984  0.03553704     1.48570
O406        O  0.10408701  0.66646953  0.49346340    -0.88290
Mn407      Mn  0.13776876  0.53727421  0.03517002     1.49560
O408        O  0.08632606  0.91459978  0.07555297    -0.92170
C409        C  0.46550099  0.88796941  0.45779415     1.18900
C410        C  0.12934171  0.95108492  0.09080825     1.10960
Mn411      Mn  0.00813324  0.50267503  0.48812835     1.80970
O412        O  0.42718153  0.54245513  0.07121141    -0.97320
Mn413      Mn  0.03048960  0.90364097  0.03134045     1.49260
C414        C  0.13294866  0.96008623  0.47399281     1.07480
Mn415      Mn  0.97428856  0.59353656  0.03271761     1.49930
C416        C  0.05733165  0.66310803  0.09479679     1.10390
O417        O  0.13027145  0.58352155  0.49763296    -1.03120
O418        O  0.34624892  0.93284233  0.08371772    -0.92790
C419        C  0.12542821  0.57874589  0.46125760     1.21670
O420        O  0.42644009  0.54024978  0.49686249    -1.03510
O421        O  0.36113144  0.86491766  0.07873735    -0.90910
O422        O  0.01346234  0.64616230  0.07608234    -0.90520
O423        O  0.15339347  0.99756261  0.07870759    -0.90540
Mn424      Mn  0.41463299  0.87696039  0.03306283     1.47860
O425        O  0.46619119  0.52913322  0.12003519    -0.79010
C426        C  0.12474647  0.57426998  0.10944666     1.14720
O427        O  0.48105403  0.93478754  0.44590363    -0.77750
O428        O  0.48236364  0.93491253  0.11898436    -0.77360
Mn429      Mn  0.11139566  0.62102541  0.03689906     1.51060
O430        O  0.01714344  0.64570730  0.48702684    -0.89710
O431        O  0.47030507  0.88260656  0.07075122    -0.97240
O432        O  0.09715742  0.65796913  0.08377209    -0.92250
C433        C  0.46827943  0.88860462  0.10711330     1.12510
C434        C  0.40426701  0.57614430  0.39718513    -0.09870
C435        C  0.41119407  0.57837749  0.43909779     0.06320
C436        C  0.38674801  0.60428252  0.46017655    -0.03640
C437        C  0.36038573  0.62814134  0.43973356    -0.08090
C438        C  0.35722825  0.62948217  0.39736257     0.05440
C439        C  0.36955147  0.59245557  0.37844632    -0.03120
Br440      Br  0.33029020  0.54948224  0.33332589    -0.02810
H441        H  0.41673496  0.55235330  0.38018610     0.09350
H442        H  0.34756869  0.65086905  0.45751863     0.07370
Br443      Br  0.89322571  0.61683218  0.51686022    -0.03240
C444        C  0.18184792  0.58767478  0.39834596    -0.09870
C445        C  0.17687591  0.60730104  0.43560990     0.06320
C446        C  0.22443393  0.65189360  0.45002271    -0.03640
C447        C  0.27413882  0.67302272  0.42911861    -0.08090
C448        C  0.28138688  0.65170599  0.39287644     0.05440
C449        C  0.23224557  0.60806965  0.37754928    -0.03120
Br450      Br  0.22675821  0.57282092  0.32799404    -0.02810
H451        H  0.14626044  0.55476571  0.38565126     0.09350
H452        H  0.30829127  0.70565854  0.44334323     0.07370
Br453      Br  0.22620845  0.68744176  0.49890286    -0.03240
C454        C  0.37405147  0.77448798  0.38119307    -0.09870
C455        C  0.38156091  0.73129787  0.39280270     0.06320
C456        C  0.42447710  0.74638286  0.42114287    -0.03640
C457        C  0.44506097  0.79358007  0.44390611    -0.08090
C458        C  0.43894980  0.83669030  0.43190070     0.05440
C459        C  0.40488470  0.82643328  0.39780139    -0.03120
Br460      Br  0.40030611  0.88207740  0.37173688    -0.02810
H461        H  0.34495065  0.76901389  0.35824225     0.09350
H462        H  0.47117237  0.79854832  0.46920886     0.07370
Br463      Br  0.46994582  0.71528703  0.42022469    -0.03240
C464        C  0.07979634  0.68337437  0.16582890    -0.09870
C465        C  0.06352197  0.69420028  0.12913103     0.06320
C466        C  0.06102751  0.73971596  0.12371771    -0.03640
C467        C  0.08749944  0.77898317  0.15097186    -0.08090
C468        C  0.12190371  0.77526701  0.18043966     0.05440
C469        C  0.10788346  0.72404253  0.19302760    -0.03120
Br470      Br  0.13305261  0.70724225  0.24168863    -0.02810
H471        H  0.07661604  0.64552506  0.17116740     0.09350
H472        H  0.08678306  0.81438400  0.14399943     0.07370
Br473      Br  0.03698936  0.75622058  0.07442252    -0.03240
C474        C  0.18828355  0.91816692  0.10870155    -0.09870
C475        C  0.15478294  0.93689150  0.12186777     0.06320
C476        C  0.13323828  0.92556562  0.16022782    -0.03640
C477        C  0.14588050  0.89530201  0.18496292    -0.08090
C478        C  0.17621265  0.87130453  0.17089199     0.05440
C479        C  0.19238626  0.88001851  0.12982877    -0.03120
Br480      Br  0.19142571  0.82920327  0.09266294    -0.02810
H481        H  0.19994677  0.92349610  0.07788978     0.09350
H482        H  0.12561017  0.88551456  0.21361405     0.07370
Br483      Br  0.07840122  0.94132039  0.17738551    -0.03240
C484        C  0.27862624  0.81278646  0.13384370    -0.09870
C485        C  0.31092718  0.86683393  0.13306099     0.06320
C486        C  0.31185836  0.89469690  0.16754951    -0.03640
C487        C  0.27537738  0.86801849  0.19808260    -0.08090
C488        C  0.22709473  0.82211940  0.18909890     0.05440
C489        C  0.23529236  0.79010340  0.16048886    -0.03120
Br490      Br  0.19970365  0.71664715  0.15601386    -0.02810
H491        H  0.28259724  0.78890869  0.11067771     0.09350
H492        H  0.28305683  0.88548804  0.22717351     0.07370
Br493      Br  0.36264313  0.96602796  0.17739374    -0.03240
C494        C  0.34072393  0.59853596  0.14540206    -0.09870
C495        C  0.37288343  0.64073828  0.17234372     0.06320
C496        C  0.42510746  0.64374258  0.18062473    -0.03640
C497        C  0.44138612  0.60967512  0.16213623    -0.08090
C498        C  0.41124194  0.57387816  0.13220352     0.05440
C499        C  0.35973715  0.56866309  0.12456333    -0.03120
Br500      Br  0.31052709  0.51826608  0.08726572    -0.02810
H501        H  0.29895403  0.58665681  0.13929520     0.09350
H502        H  0.47892309  0.61141344  0.17097291     0.07370
Br503      Br  0.47805258  0.68615086  0.21971762    -0.03240
C504        C  0.22712772  0.63319372  0.11121170    -0.09870
C505        C  0.17906247  0.60134216  0.13300683     0.06320
C506        C  0.18682658  0.59724520  0.17453256    -0.03640
C507        C  0.24012716  0.62032453  0.19165955    -0.08090
C508        C  0.28855886  0.65559852  0.17053431     0.05440
C509        C  0.27953001  0.66073054  0.12883595    -0.03120
Br510      Br  0.33664471  0.69764684  0.09087081    -0.02810
H511        H  0.22421812  0.63750779  0.07926238     0.09350
H512        H  0.24278281  0.61071585  0.22250769     0.07370
Br513      Br  0.12670057  0.06613953  0.21054787    -0.03240
C514        C  0.37641955  0.78081852  0.18467718    -0.09870
C515        C  0.38692458  0.73872072  0.17624778     0.06320
C516        C  0.43785032  0.75812177  0.15644001    -0.03640
C517        C  0.45126711  0.79702822  0.12641277    -0.08090
C518        C  0.44249875  0.83968510  0.13416497     0.05440
C519        C  0.40839764  0.83200543  0.16767981    -0.03120
Br520      Br  0.41764301  0.88999005  0.19900146    -0.02810
H521        H  0.34816885  0.77702912  0.20703215     0.09350
H522        H  0.47986159  0.80163014  0.10338651     0.07370
Br523      Br  0.49610257  0.79556789  0.19447338    -0.03240
C524        C  0.31382894  0.69053320  0.30654381    -0.09870
C525        C  0.34548208  0.67393669  0.32865632     0.06320
C526        C  0.37918725  0.66244071  0.30368325    -0.03640
C527        C  0.36869821  0.65327950  0.26209589    -0.08090
C528        C  0.34357457  0.67573166  0.23890957     0.05440
C529        C  0.31430020  0.69418078  0.26380495    -0.03120
Br530      Br  0.26374945  0.71568979  0.24564635    -0.02810
H531        H  0.28679532  0.69999133  0.32279491     0.09350
H532        H  0.38200868  0.62856707  0.24845660     0.07370
Br533      Br  0.44568237  0.66519381  0.32002837    -0.03240
C534        C  0.11427153  0.73853161  0.37715974    -0.09870
C535        C  0.12741011  0.78941973  0.38921094     0.06320
C536        C  0.10299491  0.79312356  0.42525695    -0.03640
C537        C  0.08767321  0.75510757  0.45414009    -0.08090
C538        C  0.08180236  0.70700850  0.44399073     0.05440
C539        C  0.09092538  0.69694806  0.40435245    -0.03120
Br540      Br  0.07342457  0.62853747  0.38643878    -0.02810
H541        H  0.12505973  0.73179026  0.34753084     0.09350
H542        H  0.07394712  0.76076661  0.48311171     0.07370
Br543      Br  0.06911576  0.83474163  0.43105259    -0.03240
C544        C  0.19742171  0.89599948  0.42780982    -0.09870
C545        C  0.17779453  0.88802626  0.38814419     0.06320
C546        C  0.15489266  0.91998864  0.37441106    -0.03640
C547        C  0.14595809  0.95043140  0.40246970    -0.08090
C548        C  0.16219061  0.95231261  0.44206424     0.05440
C549        C  0.19497043  0.93172509  0.45271043    -0.03120
Br550      Br  0.22952935  0.94417644  0.00349940    -0.02810
H551        H  0.21032117  0.87058116  0.44134584     0.09350
H552        H  0.12039608  0.96707601  0.39471842     0.07370
Br553      Br  0.12167443  0.91884058  0.32355780    -0.03240
C554        C  0.26986232  0.81357975  0.42868020    -0.09870
C555        C  0.30067623  0.86673393  0.43877681     0.06320
C556        C  0.30436742  0.90285976  0.40978240    -0.03640
C557        C  0.27665567  0.88643606  0.37392597    -0.08090
C558        C  0.22919893  0.83784903  0.37344310     0.05440
C559        C  0.23454142  0.79880612  0.39527231    -0.03120
Br560      Br  0.22215318  0.73613261  0.36863430    -0.02810
H561        H  0.27372049  0.78431170  0.44585170     0.09350
H562        H  0.28224223  0.91750127  0.35443620     0.07370
Br563      Br  0.32067132  0.47072745  0.42294202    -0.03240
C564        C  0.20405781  0.88237670  0.30136246    -0.09870
C565        C  0.16457371  0.84026278  0.32326261     0.06320
C566        C  0.11676061  0.80653147  0.30252594    -0.03640
C567        C  0.11882814  0.80303893  0.26121890    -0.08090
C568        C  0.16714989  0.83529361  0.23997563     0.05440
C569        C  0.20423896  0.88216200  0.26029182    -0.03120
Br570      Br  0.24802936  0.95167818  0.23763250    -0.02810
H571        H  0.22937724  0.91927005  0.31573588     0.09350
H572        H  0.08161252  0.77663490  0.24605036     0.07370
Br573      Br  0.04659424  0.78334917  0.32507606    -0.03240
C574        C  0.17346156  0.83830242  0.86789118    -0.03210
C575        C  0.34854553  0.67798943  0.69002757    -0.03210
C576        C  0.17302849  0.82496358  0.69532679    -0.03210
C577        C  0.34221039  0.67119217  0.87692424    -0.03210
O578        O  0.08764985  0.92190205  0.98524458    -0.88900
C579        C  0.34209542  0.89038183  0.59670188     1.11140
O580        O  0.05113904  0.98276152  0.53342187    -1.36710
O581        O  0.35674022  0.86134167  0.98889972    -0.90380
O582        O  0.15739801  0.00329603  0.99128671    -0.91050
O583        O  0.07814628  0.54618613  0.94821462    -0.79870
O584        O  0.46869546  0.88352410  0.49403739    -1.01960
C585        C  0.43346381  0.54601036  0.96110193     1.21190
O586        O  0.02894823  0.56297804  0.53405545    -1.36850
Mn587      Mn  0.00853209  0.50218928  0.57909383     1.81790
O588        O  0.46473888  0.53002555  0.94695636    -0.78940
O589        O  0.33890353  0.92719733  0.99219954    -0.88340
C590        C  0.43460715  0.54547360  0.60722710     1.12270
C591        C  0.33304307  0.88543129  0.97609119     1.07000
O592        O  0.07732001  0.54325466  0.62236508    -0.79880
O593        O  0.44568451  0.96110574  0.53354961    -1.33580
O594        O  0.12681687  0.57911653  0.57330163    -0.99090
C595        C  0.06626343  0.66947269  0.97595625     1.05710
Mn596      Mn  0.38501177  0.48296470  0.53553788     1.48570
O597        O  0.10412936  0.66647970  0.99348105    -0.88290
Mn598      Mn  0.13775066  0.53727154  0.53516058     1.49560
O599        O  0.08631615  0.91460028  0.57555160    -0.92170
C600        C  0.46552319  0.88797905  0.95779219     1.18900
C601        C  0.12933148  0.95108675  0.59080565     1.10960
Mn602      Mn  0.00816032  0.50268399  0.98813087     1.80970
O603        O  0.42715514  0.54243863  0.57121350    -0.97320
Mn604      Mn  0.03047951  0.90363604  0.53133948     1.49260
C605        C  0.13295335  0.96010679  0.97399049     1.07480
Mn606      Mn  0.97425731  0.59352873  0.53272284     1.49930
C607        C  0.05731393  0.66310696  0.59479381     1.10390
O608        O  0.13030415  0.58353268  0.99764335    -1.03120
O609        O  0.34622604  0.93282460  0.58371740    -0.92790
C610        C  0.12546231  0.57875775  0.96126730     1.21670
O611        O  0.42646882  0.54025947  0.99685885    -1.03510
O612        O  0.36112330  0.86490842  0.57874703    -0.90910
O613        O  0.01343320  0.64614863  0.57609219    -0.90520
O614        O  0.15338190  0.99756448  0.57870270    -0.90540
Mn615      Mn  0.41462042  0.87695220  0.53306806     1.47860
O616        O  0.46617571  0.52912599  0.62003453    -0.79010
C617        C  0.12473742  0.57427814  0.60943542     1.14720
O618        O  0.48108350  0.93479918  0.94590317    -0.77750
O619        O  0.48236133  0.93491417  0.61898402    -0.77360
Mn620      Mn  0.11136987  0.62102378  0.53688506     1.51060
O621        O  0.01718359  0.64569636  0.98701687    -0.89710
O622        O  0.47029927  0.88260777  0.57075131    -0.97240
O623        O  0.09714122  0.65797770  0.58375645    -0.92250
C624        C  0.46827798  0.88860638  0.60711337     1.12510
C625        C  0.40429762  0.57615255  0.89718211    -0.09870
C626        C  0.41124274  0.57840071  0.93909333     0.06320
C627        C  0.38682135  0.60432838  0.96017229    -0.03640
C628        C  0.36045628  0.62818496  0.93973080    -0.08090
C629        C  0.35727283  0.62950359  0.89736051     0.05440
C630        C  0.36957958  0.59246413  0.87844744    -0.03120
Br631      Br  0.33029411  0.54947723  0.83333933    -0.02810
H632        H  0.41674882  0.55234738  0.88018472     0.09350
H633        H  0.34765307  0.65092458  0.95751467     0.07370
Br634      Br  0.89333256  0.61690745  0.01685226    -0.03240
C635        C  0.18188134  0.58768215  0.89835508    -0.09870
C636        C  0.17691198  0.60731019  0.93561917     0.06320
C637        C  0.22447294  0.65190231  0.95002968    -0.03640
C638        C  0.27417640  0.67303043  0.92912255    -0.08090
C639        C  0.28142054  0.65171408  0.89287873     0.05440
C640        C  0.23227643  0.60807774  0.87755419    -0.03120
Br641      Br  0.22677809  0.57283207  0.82799514    -0.02810
H642        H  0.14629303  0.55477155  0.88566268     0.09350
H643        H  0.30833098  0.70566675  0.94334499     0.07370
Br644      Br  0.22625358  0.68745146  0.99891041    -0.03240
C645        C  0.37407203  0.77449828  0.88119167    -0.09870
C646        C  0.38159364  0.73131247  0.89279280     0.06320
C647        C  0.42452434  0.74640391  0.92112085    -0.03640
C648        C  0.44510155  0.79359592  0.94389071    -0.08090
C649        C  0.43897862  0.83670283  0.93189443     0.05440
C650        C  0.40490413  0.82644357  0.89780049    -0.03120
Br651      Br  0.40030660  0.88208387  0.87174653    -0.02810
H652        H  0.34496165  0.76902119  0.85824815     0.09350
H653        H  0.47120628  0.79855933  0.96919609     0.07370
Br654      Br  0.47001030  0.71532378  0.92017365    -0.03240
C655        C  0.07978794  0.68337205  0.66582566    -0.09870
C656        C  0.06351389  0.69420134  0.62912888     0.06320
C657        C  0.06101401  0.73971496  0.62372004    -0.03640
C658        C  0.08747281  0.77897613  0.65098207    -0.08090
C659        C  0.12188248  0.77526122  0.68044633     0.05440
C660        C  0.10786878  0.72403666  0.69302875    -0.03120
Br661      Br  0.13303509  0.70723372  0.74169019    -0.02810
H662        H  0.07660913  0.64552282  0.67116128     0.09350
H663        H  0.08674913  0.81437535  0.64401652     0.07370
Br664      Br  0.03698636  0.75622411  0.57442180    -0.03240
C665        C  0.18824868  0.91813937  0.60869286    -0.09870
C666        C  0.15477341  0.93689035  0.62186395     0.06320
C667        C  0.13323988  0.92557750  0.66022774    -0.03640
C668        C  0.14587288  0.89530605  0.68496243    -0.08090
C669        C  0.17619335  0.87129659  0.67089144     0.05440
C670        C  0.19235501  0.87999678  0.62982550    -0.03120
Br671      Br  0.19139885  0.82917587  0.59266751    -0.02810
H672        H  0.19989400  0.92345114  0.57787833     0.09350
H673        H  0.12560757  0.88552642  0.71361557     0.07370
Br674      Br  0.07842540  0.94136010  0.67739181    -0.03240
C675        C  0.27860873  0.81277733  0.63385036    -0.09870
C676        C  0.31091032  0.86682417  0.63306615     0.06320
C677        C  0.31184111  0.89468902  0.66755363    -0.03640
C678        C  0.27535833  0.86801294  0.69808652    -0.08090
C679        C  0.22707586  0.82211357  0.68910388     0.05440
C680        C  0.23527474  0.79009605  0.66049571    -0.03120
Br681      Br  0.19969533  0.71663995  0.65602749    -0.02810
H682        H  0.28258086  0.78889829  0.61068595     0.09350
H683        H  0.28303730  0.88548302  0.72717721     0.07370
Br684      Br  0.36263156  0.96601807  0.67739923    -0.03240
C685        C  0.34070222  0.59852063  0.64540750    -0.09870
C686        C  0.37287076  0.64073519  0.67233697     0.06320
C687        C  0.42509769  0.64374440  0.68061233    -0.03640
C688        C  0.44137365  0.60967337  0.66212754    -0.08090
C689        C  0.41122027  0.57386365  0.63220525     0.05440
C690        C  0.35970998  0.56863990  0.62457336    -0.03120
Br691      Br  0.31048508  0.51821785  0.58729747    -0.02810
H692        H  0.29892886  0.58663662  0.63930916     0.09350
H693        H  0.47891461  0.61141724  0.67095970     0.07370
Br694      Br  0.47804592  0.68615961  0.71969874    -0.03240
C695        C  0.22712356  0.63319111  0.61120019    -0.09870
C696        C  0.17905486  0.60134868  0.63299539     0.06320
C697        C  0.18681554  0.59726092  0.67452331    -0.03640
C698        C  0.24011483  0.62033778  0.69165299    -0.08090
C699        C  0.28855020  0.65560026  0.67052673     0.05440
C700        C  0.27952580  0.66072542  0.62882629    -0.03120
Br701      Br  0.33664915  0.69763268  0.59086473    -0.02810
H702        H  0.22421703  0.63749899  0.57924964     0.09350
H703        H  0.24276651  0.61073552  0.72250349     0.07370
Br704      Br  0.12668653  0.06618172  0.71053788    -0.03240
C705        C  0.37639249  0.78081038  0.68465665    -0.09870
C706        C  0.38691560  0.73872049  0.67624307     0.06320
C707        C  0.43785599  0.75813173  0.65645407    -0.03640
C708        C  0.45128288  0.79703751  0.62642422    -0.08090
C709        C  0.44249913  0.83968746  0.63416508     0.05440
C710        C  0.40837771  0.83200022  0.66766718    -0.03120
Br711      Br  0.41762386  0.88997842  0.69899697    -0.02810
H712        H  0.34811361  0.77701132  0.70699002     0.09350
H713        H  0.47989714  0.80165012  0.60341134     0.07370
Br714      Br  0.49608483  0.79558789  0.69450547    -0.03240
C715        C  0.31385107  0.69054288  0.80654446    -0.09870
C716        C  0.34550400  0.67394102  0.82865110     0.06320
C717        C  0.37919150  0.66242835  0.80367093    -0.03640
C718        C  0.36869093  0.65326824  0.76208465    -0.08090
C719        C  0.34356959  0.67572805  0.73890388     0.05440
C720        C  0.31430796  0.69418493  0.76380565    -0.03120
Br721      Br  0.26374999  0.71569187  0.74566082    -0.02810
H722        H  0.28682434  0.70000519  0.82280069     0.09350
H723        H  0.38199707  0.62855486  0.74844057     0.07370
Br724      Br  0.44568363  0.66516156  0.81999889    -0.03240
C725        C  0.11429263  0.73854323  0.87716536    -0.09870
C726        C  0.12743334  0.78942993  0.88922629     0.06320
C727        C  0.10305362  0.79312833  0.92529355    -0.03640
C728        C  0.08774084  0.75510306  0.95416494    -0.08090
C729        C  0.08185161  0.70700504  0.94399742     0.05440
C730        C  0.09095563  0.69695214  0.90435271    -0.03120
Br731      Br  0.07344488  0.62854372  0.88642489    -0.02810
H732        H  0.12506758  0.73180674  0.84753030     0.09350
H733        H  0.07403599  0.76075717  0.98314727     0.07370
Br734      Br  0.06918024  0.83473909  0.93114888    -0.03240
C735        C  0.19743573  0.89604062  0.92780082    -0.09870
C736        C  0.17778129  0.88803804  0.88814216     0.06320
C737        C  0.15484313  0.91997011  0.87441079    -0.03640
C738        C  0.14591174  0.95041791  0.90246578    -0.08090
C739        C  0.16218353  0.95233595  0.94205379     0.05440
C740        C  0.19498607  0.93177183  0.95269597    -0.03120
Br741      Br  0.22952320  0.94413228  0.50350811    -0.02810
H742        H  0.21034912  0.87063425  0.94133998     0.09350
H743        H  0.12032989  0.96704288  0.89471915     0.07370
Br744      Br  0.12159646  0.91878845  0.82356316    -0.03240
C745        C  0.26989393  0.81361398  0.92866530    -0.09870
C746        C  0.30069956  0.86676700  0.93876943     0.06320
C747        C  0.30438149  0.90289897  0.90978608    -0.03640
C748        C  0.27666159  0.88650052  0.87391996    -0.08090
C749        C  0.22921488  0.83788535  0.87344141     0.05440
C750        C  0.23457341  0.79884584  0.89525737    -0.03120
Br751      Br  0.22218058  0.73617032  0.86861834    -0.02810
H752        H  0.27375608  0.78434880  0.94582795     0.09350
H753        H  0.28223709  0.91747051  0.85453204     0.07370
Br754      Br  0.32068220  0.47076166  0.92296418    -0.03240
C755        C  0.20404925  0.88240051  0.80137029    -0.09870
C756        C  0.16456692  0.84026843  0.82326750     0.06320
C757        C  0.11675756  0.80652671  0.80253616    -0.03640
C758        C  0.11881780  0.80303324  0.76122781    -0.08090
C759        C  0.16713477  0.83529481  0.73998053     0.05440
C760        C  0.20422072  0.88216634  0.76029312    -0.03120
Br761      Br  0.24801718  0.95167943  0.73763040    -0.02810
H762        H  0.22928726  0.91921683  0.81568981     0.09350
H763        H  0.08160649  0.77662392  0.74606500     0.07370
Br764      Br  0.04659097  0.78331488  0.82509640    -0.03240
C765        C  0.67345691  0.33828575  0.36788641    -0.03210
C766        C  0.84855503  0.17799056  0.19003380    -0.03210
C767        C  0.67304749  0.32496829  0.19532228    -0.03210
C768        C  0.84217780  0.17118063  0.37692854    -0.03210
O769        O  0.58764500  0.42187988  0.48524670    -0.88900
C770        C  0.84211078  0.39039414  0.09669684     1.11140
O771        O  0.55115537  0.48276564  0.03342747    -1.36710
O772        O  0.85671866  0.36132219  0.48891040    -0.90380
O773        O  0.65737863  0.50328503  0.49127823    -0.91050
O774        O  0.57811194  0.04617432  0.44820629    -0.79870
O775        O  0.96870988  0.38353078  0.99403592    -1.01960
C776        C  0.93342918  0.04599805  0.46110532     1.21190
O777        O  0.52897343  0.06298270  0.03405973    -1.36850
Mn778      Mn  0.50854589  0.00219158  0.07909720     1.81790
O779        O  0.96470314  0.03001292  0.44695729    -0.78940
O780        O  0.83888475  0.42718097  0.49219753    -0.88340
C781        C  0.93463070  0.04548911  0.10722554     1.12270
C782        C  0.83302178  0.38540963  0.47609664     1.07000
O783        O  0.57732811  0.04324802  0.12237460    -0.79880
O784        O  0.94570402  0.46111476  0.03354823    -1.33580
O785        O  0.62682756  0.07910921  0.07331327    -0.99090
C786        C  0.56621985  0.16947994  0.47595553     1.05710
Mn787      Mn  0.88503593  0.98297983  0.03553704     1.48570
O788        O  0.60408704  0.16646953  0.49346340    -0.88290
Mn789      Mn  0.63776879  0.03727421  0.03517000     1.49560
O790        O  0.58632604  0.41459974  0.07555291    -0.92170
C791        C  0.96550096  0.38796941  0.45779415     1.18900
C792        C  0.62934168  0.45108487  0.09080821     1.10960
Mn793      Mn  0.50813326  0.00267502  0.48812835     1.80970
O794        O  0.92718156  0.04245513  0.07121141    -0.97320
Mn795      Mn  0.53048956  0.40364096  0.03134043     1.49260
C796        C  0.63294863  0.46008624  0.47399279     1.07480
Mn797      Mn  0.47428859  0.09353655  0.03271760     1.49930
C798        C  0.55733168  0.16310801  0.09479679     1.10390
O799        O  0.63027147  0.08352155  0.49763296    -1.03120
O800        O  0.84624885  0.43284231  0.08371770    -0.92790
C801        C  0.62542824  0.07874589  0.46125760     1.21670
O802        O  0.92644011  0.04024978  0.49686249    -1.03510
O803        O  0.86113140  0.36491766  0.07873736    -0.90910
O804        O  0.51346238  0.14616229  0.07608233    -0.90520
O805        O  0.65339342  0.49756259  0.07870760    -0.90540
Mn806      Mn  0.91463296  0.37696039  0.03306284     1.47860
O807        O  0.96619123  0.02913323  0.12003518    -0.79010
C808        C  0.62474651  0.07426997  0.10944665     1.14720
O809        O  0.98105400  0.43478754  0.44590363    -0.77750
O810        O  0.98236362  0.43491253  0.11898436    -0.77360
Mn811      Mn  0.61139569  0.12102541  0.03689907     1.51060
O812        O  0.51714346  0.14570728  0.48702683    -0.89710
O813        O  0.97030505  0.38260655  0.07075122    -0.97240
O814        O  0.59715745  0.15796911  0.08377210    -0.92250
C815        C  0.96827942  0.38860462  0.10711330     1.12510
C816        C  0.90426703  0.07614429  0.39718513    -0.09870
C817        C  0.91119408  0.07837749  0.43909779     0.06320
C818        C  0.88674803  0.10428252  0.46017655    -0.03640
C819        C  0.86038575  0.12814133  0.43973356    -0.08090
C820        C  0.85722827  0.12948217  0.39736257     0.05440
C821        C  0.86955149  0.09245557  0.37844632    -0.03120
Br822      Br  0.83029023  0.04948224  0.33332588    -0.02810
H823        H  0.91673498  0.05235329  0.38018610     0.09350
H824        H  0.84756871  0.15086905  0.45751862     0.07370
Br825      Br  0.39322577  0.11683221  0.51686021    -0.03240
C826        C  0.68184795  0.08767478  0.39834595    -0.09870
C827        C  0.67687593  0.10730105  0.43560989     0.06320
C828        C  0.72443395  0.15189361  0.45002271    -0.03640
C829        C  0.77413884  0.17302272  0.42911860    -0.08090
C830        C  0.78138690  0.15170599  0.39287644     0.05440
C831        C  0.73224560  0.10806965  0.37754928    -0.03120
Br832      Br  0.72675824  0.07282091  0.32799404    -0.02810
H833        H  0.64626046  0.05476571  0.38565126     0.09350
H834        H  0.80829129  0.20565855  0.44334323     0.07370
Br835      Br  0.72620846  0.18744177  0.49890285    -0.03240
C836        C  0.87405148  0.27448798  0.38119306    -0.09870
C837        C  0.88156093  0.23129787  0.39280270     0.06320
C838        C  0.92447711  0.24638287  0.42114287    -0.03640
C839        C  0.94506097  0.29358008  0.44390611    -0.08090
C840        C  0.93894979  0.33669030  0.43190070     0.05440
C841        C  0.90488469  0.32643327  0.39780139    -0.03120
Br842      Br  0.90030609  0.38207739  0.37173687    -0.02810
H843        H  0.84495066  0.26901388  0.35824224     0.09350
H844        H  0.97117237  0.29854834  0.46920887     0.07370
Br845      Br  0.96994583  0.21528704  0.42022471    -0.03240
C846        C  0.57979636  0.18337432  0.16582891    -0.09870
C847        C  0.56352197  0.19420023  0.12913105     0.06320
C848        C  0.56102742  0.23971588  0.12371776    -0.03640
C849        C  0.58749930  0.27898307  0.15097194    -0.08090
C850        C  0.62190363  0.27526694  0.18043969     0.05440
C851        C  0.60788343  0.22404247  0.19302762    -0.03120
Br852      Br  0.63305259  0.20724221  0.24168866    -0.02810
H853        H  0.57661610  0.14552502  0.17116739     0.09350
H854        H  0.58678286  0.31438388  0.14399954     0.07370
Br855      Br  0.53698926  0.25622050  0.07442257    -0.03240
C856        C  0.68828339  0.41816671  0.10870146    -0.09870
C857        C  0.65478290  0.43689141  0.12186771     0.06320
C858        C  0.63323830  0.42556561  0.16022778    -0.03640
C859        C  0.64588049  0.39530199  0.18496289    -0.08090
C860        C  0.67621257  0.37130444  0.17089195     0.05440
C861        C  0.69238610  0.38001832  0.12982871    -0.03120
Br862      Br  0.69142549  0.32920301  0.09266292    -0.02810
H863        H  0.69994652  0.42349580  0.07788966     0.09350
H864        H  0.62561020  0.38551460  0.21361403     0.07370
Br865      Br  0.57840132  0.44132048  0.17738549    -0.03240
C866        C  0.77862616  0.31278644  0.13384368    -0.09870
C867        C  0.81092707  0.36683391  0.13306096     0.06320
C868        C  0.81185826  0.39469687  0.16754948    -0.03640
C869        C  0.77537730  0.36801845  0.19808259    -0.08090
C870        C  0.72709467  0.32211935  0.18909891     0.05440
C871        C  0.73529230  0.29010336  0.16048886    -0.03120
Br872      Br  0.69970368  0.21664711  0.15601392    -0.02810
H873        H  0.78259716  0.28890868  0.11067768     0.09350
H874        H  0.78305677  0.38548799  0.22717351     0.07370
Br875      Br  0.86264302  0.46602794  0.17739372    -0.03240
C876        C  0.84072396  0.09853598  0.14540205    -0.09870
C877        C  0.87288346  0.14073829  0.17234371     0.06320
C878        C  0.92510748  0.14374259  0.18062472    -0.03640
C879        C  0.94138614  0.10967513  0.16213623    -0.08090
C880        C  0.91124198  0.07387817  0.13220351     0.05440
C881        C  0.85973718  0.06866311  0.12456332    -0.03120
Br882      Br  0.81052714  0.01826611  0.08726570    -0.02810
H883        H  0.79895406  0.08665683  0.13929518     0.09350
H884        H  0.97892311  0.11141344  0.17097291     0.07370
Br885      Br  0.97805261  0.18615089  0.21971760    -0.03240
C886        C  0.72712775  0.13319373  0.11121169    -0.09870
C887        C  0.67906250  0.10134215  0.13300682     0.06320
C888        C  0.68682661  0.09724517  0.17453255    -0.03640
C889        C  0.74012718  0.12032451  0.19165955    -0.08090
C890        C  0.78855889  0.15559852  0.17053431     0.05440
C891        C  0.77953004  0.16073055  0.12883595    -0.03120
Br892      Br  0.83664475  0.19764689  0.09087083    -0.02810
H893        H  0.72421815  0.13750781  0.07926237     0.09350
H894        H  0.74278284  0.11071583  0.22250768     0.07370
Br895      Br  0.62670054  0.56613958  0.21054789    -0.03240
C896        C  0.87641945  0.28081848  0.18467710    -0.09870
C897        C  0.88692459  0.23872073  0.17624779     0.06320
C898        C  0.93785039  0.25812184  0.15644010    -0.03640
C899        C  0.95126723  0.29702828  0.12641285    -0.08090
C900        C  0.94249876  0.33968511  0.13416499     0.05440
C901        C  0.90839755  0.33200540  0.16767976    -0.03120
Br902      Br  0.91764285  0.38998999  0.19900142    -0.02810
H903        H  0.84816862  0.27702903  0.20703198     0.09350
H904        H  0.97986183  0.30163027  0.10338667     0.07370
Br905      Br  0.99610251  0.29556797  0.19447356    -0.03240
C906        C  0.81382896  0.19053319  0.30654381    -0.09870
C907        C  0.84548210  0.17393669  0.32865632     0.06320
C908        C  0.87918728  0.16244072  0.30368325    -0.03640
C909        C  0.86869824  0.15327951  0.26209588    -0.08090
C910        C  0.84357459  0.17573166  0.23890957     0.05440
C911        C  0.81430021  0.19418076  0.26380495    -0.03120
Br912      Br  0.76374942  0.21568973  0.24564638    -0.02810
H913        H  0.78679533  0.19999131  0.32279492     0.09350
H914        H  0.88200873  0.12856709  0.24845660     0.07370
Br915      Br  0.94568240  0.16519382  0.32002837    -0.03240
C916        C  0.61427153  0.23853162  0.37715975    -0.09870
C917        C  0.62741011  0.28941974  0.38921095     0.06320
C918        C  0.60299494  0.29312357  0.42525698    -0.03640
C919        C  0.58767325  0.25510757  0.45414010    -0.08090
C920        C  0.58180238  0.20700850  0.44399073     0.05440
C921        C  0.59092539  0.19694807  0.40435245    -0.03120
Br922      Br  0.57342458  0.12853748  0.38643877    -0.02810
H923        H  0.62505972  0.23179027  0.34753084     0.09350
H924        H  0.57394718  0.26076661  0.48311173     0.07370
Br925      Br  0.56911578  0.33474163  0.43105264    -0.03240
C926        C  0.69742172  0.39599952  0.42780981    -0.09870
C927        C  0.67779451  0.38802628  0.38814419     0.06320
C928        C  0.65489262  0.41998863  0.37441105    -0.03640
C929        C  0.64595804  0.45043139  0.40246968    -0.08090
C930        C  0.66219058  0.45231263  0.44206422     0.05440
C931        C  0.69497043  0.43172514  0.45271041    -0.03120
Br932      Br  0.72952943  0.44417660  0.00349936    -0.02810
H933        H  0.71032119  0.37058122  0.44134583     0.09350
H934        H  0.62039601  0.46707598  0.39471841     0.07370
Br935      Br  0.62167439  0.41884057  0.32355778    -0.03240
C936        C  0.76986232  0.31357977  0.42868019    -0.09870
C937        C  0.80067623  0.36673394  0.43877680     0.06320
C938        C  0.80436742  0.40285977  0.40978238    -0.03640
C939        C  0.77665565  0.38643607  0.37392596    -0.08090
C940        C  0.72919892  0.33784905  0.37344309     0.05440
C941        C  0.73454142  0.29880613  0.39527229    -0.03120
Br942      Br  0.72215319  0.23613263  0.36863428    -0.02810
H943        H  0.77372048  0.28431171  0.44585169     0.09350
H944        H  0.78224221  0.41750129  0.35443619     0.07370
Br945      Br  0.82067133  0.97072743  0.42294202    -0.03240
C946        C  0.70405778  0.38237669  0.30136245    -0.09870
C947        C  0.66457368  0.34026278  0.32326261     0.06320
C948        C  0.61676058  0.30653146  0.30252595    -0.03640
C949        C  0.61882810  0.30303890  0.26121892    -0.08090
C950        C  0.66714983  0.33529358  0.23997563     0.05440
C951        C  0.70423891  0.38216197  0.26029181    -0.03120
Br952      Br  0.74802931  0.45167815  0.23763247    -0.02810
H953        H  0.72937722  0.41927004  0.31573586     0.09350
H954        H  0.58161247  0.27663485  0.24605038     0.07370
Br955      Br  0.54659422  0.28334918  0.32507609    -0.03240
C956        C  0.67346154  0.33830243  0.86789119    -0.03210
C957        C  0.84854555  0.17798943  0.69002757    -0.03210
C958        C  0.67302843  0.32496353  0.69532680    -0.03210
C959        C  0.84221041  0.17119217  0.87692424    -0.03210
O960        O  0.58764979  0.42190207  0.98524454    -0.88900
C961        C  0.84209535  0.39038182  0.59670187     1.11140
O962        O  0.55113901  0.48276151  0.53342187    -1.36710
O963        O  0.85674019  0.36134167  0.98889973    -0.90380
O964        O  0.65739799  0.50329601  0.99128673    -0.91050
O965        O  0.57814630  0.04618613  0.94821462    -0.79870
O966        O  0.96869543  0.38352410  0.49403739    -1.01960
C967        C  0.93346382  0.04601035  0.96110192     1.21190
O968        O  0.52894826  0.06297804  0.53405545    -1.36850
Mn969      Mn  0.50853212  0.00218928  0.57909382     1.81790
O970        O  0.96473890  0.03002555  0.94695636    -0.78940
O971        O  0.83890352  0.42719734  0.99219952    -0.88340
C972        C  0.93460718  0.04547361  0.60722709     1.12270
C973        C  0.83304306  0.38543130  0.97609118     1.07000
O974        O  0.57732004  0.04325466  0.62236508    -0.79880
O975        O  0.94568448  0.46110574  0.53354961    -1.33580
O976        O  0.62681690  0.07911653  0.57330162    -0.99090
C977        C  0.56626346  0.16947268  0.97595625     1.05710
Mn978      Mn  0.88501179  0.98296470  0.53553789     1.48570
O979        O  0.60412939  0.16647971  0.99348106    -0.88290
Mn980      Mn  0.63775069  0.03727154  0.53516057     1.49560
O981        O  0.58631613  0.41460026  0.57555156    -0.92170
C982        C  0.96552316  0.38797905  0.95779220     1.18900
C983        C  0.62933146  0.45108672  0.59080563     1.10960
Mn984      Mn  0.50816035  0.00268398  0.98813087     1.80970
O985        O  0.92715517  0.04243863  0.57121350    -0.97320
Mn986      Mn  0.53047947  0.40363603  0.53133947     1.49260
C987        C  0.63295331  0.46010681  0.97399047     1.07480
Mn988      Mn  0.47425734  0.09352872  0.53272283     1.49930
C989        C  0.55731396  0.16310694  0.59479381     1.10390
O990        O  0.63030418  0.08353268  0.99764334    -1.03120
O991        O  0.84622598  0.43282459  0.58371738    -0.92790
C992        C  0.62546233  0.07875775  0.96126729     1.21670
O993        O  0.92646883  0.04025946  0.99685885    -1.03510
O994        O  0.86112327  0.36490843  0.57874703    -0.90910
O995        O  0.51343323  0.14614862  0.57609217    -0.90520
O996        O  0.65338186  0.49756447  0.57870271    -0.90540
Mn997      Mn  0.91462039  0.37695220  0.53306807     1.47860
O998        O  0.96617574  0.02912600  0.62003453    -0.79010
C999        C  0.62473745  0.07427813  0.60943542     1.14720
O1000       O  0.98108347  0.43479918  0.94590317    -0.77750
O1001       O  0.98236131  0.43491417  0.61898402    -0.77360
Mn1002     Mn  0.61136990  0.12102378  0.53688506     1.51060
O1003       O  0.51718362  0.14569634  0.98701686    -0.89710
O1004       O  0.97029925  0.38260777  0.57075131    -0.97240
O1005       O  0.59714125  0.15797769  0.58375646    -0.92250
C1006       C  0.96827797  0.38860638  0.60711338     1.12510
C1007       C  0.90429764  0.07615255  0.89718210    -0.09870
C1008       C  0.91124275  0.07840070  0.93909333     0.06320
C1009       C  0.88682136  0.10432837  0.96017229    -0.03640
C1010       C  0.86045629  0.12818495  0.93973080    -0.08090
C1011       C  0.85727285  0.12950359  0.89736051     0.05440
C1012       C  0.86957961  0.09246413  0.87844744    -0.03120
Br1013     Br  0.83029414  0.04947724  0.83333932    -0.02810
H1014       H  0.91674884  0.05234737  0.88018472     0.09350
H1015       H  0.84765308  0.15092457  0.95751467     0.07370
Br1016     Br  0.39333265  0.11690750  0.01685225    -0.03240
C1017       C  0.68188136  0.08768215  0.89835507    -0.09870
C1018       C  0.67691200  0.10731020  0.93561917     0.06320
C1019       C  0.72447295  0.15190231  0.95002967    -0.03640
C1020       C  0.77417642  0.17303043  0.92912255    -0.08090
C1021       C  0.78142056  0.15171408  0.89287873     0.05440
C1022       C  0.73227645  0.10807774  0.87755419    -0.03120
Br1023     Br  0.72677812  0.07283206  0.82799515    -0.02810
H1024       H  0.64629305  0.05477155  0.88566267     0.09350
H1025       H  0.80833100  0.20566675  0.94334499     0.07370
Br1026     Br  0.72625359  0.18745147  0.99891040    -0.03240
C1027       C  0.87407204  0.27449827  0.88119166    -0.09870
C1028       C  0.88159365  0.23131247  0.89279280     0.06320
C1029       C  0.92452435  0.24640392  0.92112086    -0.03640
C1030       C  0.94510155  0.29359593  0.94389071    -0.08090
C1031       C  0.93897861  0.33670283  0.93189443     0.05440
C1032       C  0.90490413  0.32644357  0.89780048    -0.03120
Br1033     Br  0.90030659  0.38208385  0.87174653    -0.02810
H1034       H  0.84496166  0.26902118  0.85824814     0.09350
H1035       H  0.97120627  0.29855935  0.96919610     0.07370
Br1036     Br  0.97001031  0.21532378  0.92017367    -0.03240
C1037       C  0.57978795  0.18337201  0.66582566    -0.09870
C1038       C  0.56351389  0.19420130  0.62912889     0.06320
C1039       C  0.56101393  0.23971488  0.62372008    -0.03640
C1040       C  0.58747268  0.27897604  0.65098214    -0.08090
C1041       C  0.62188241  0.27526116  0.68044636     0.05440
C1042       C  0.60786876  0.22403661  0.69302877    -0.03120
Br1043     Br  0.63303507  0.20723368  0.74169021    -0.02810
H1044       H  0.57660918  0.14552279  0.67116127     0.09350
H1045       H  0.58674896  0.31437525  0.64401662     0.07370
Br1046     Br  0.53698627  0.25622404  0.57442185    -0.03240
C1047       C  0.68824855  0.41813921  0.60869280    -0.09870
C1048       C  0.65477338  0.43689028  0.62186391     0.06320
C1049       C  0.63323989  0.42557749  0.66022771    -0.03640
C1050       C  0.64587286  0.39530602  0.68496240    -0.08090
C1051       C  0.67619328  0.37129651  0.67089142     0.05440
C1052       C  0.69235487  0.37999663  0.62982546    -0.03120
Br1053     Br  0.69139866  0.32917566  0.59266750    -0.02810
H1054       H  0.69989382  0.42345092  0.57787825     0.09350
H1055       H  0.62560757  0.38552644  0.71361555     0.07370
Br1056     Br  0.57842546  0.44136017  0.67739180    -0.03240
C1057       C  0.77860865  0.31277731  0.63385034    -0.09870
C1058       C  0.81091022  0.36682415  0.63306612     0.06320
C1059       C  0.81184102  0.39468900  0.66755361    -0.03640
C1060       C  0.77535826  0.36801291  0.69808651    -0.08090
C1061       C  0.72707580  0.32211353  0.68910388     0.05440
C1062       C  0.73527468  0.29009602  0.66049571    -0.03120
Br1063     Br  0.69969536  0.21663992  0.65602755    -0.02810
H1064       H  0.78258078  0.28889828  0.61068592     0.09350
H1065       H  0.78303724  0.38548298  0.72717721     0.07370
Br1066     Br  0.86263146  0.46601805  0.67739921    -0.03240
C1067       C  0.84070226  0.09852064  0.64540749    -0.09870
C1068       C  0.87287079  0.14073520  0.67233697     0.06320
C1069       C  0.92509771  0.14374441  0.68061232    -0.03640
C1070       C  0.94137367  0.10967338  0.66212754    -0.08090
C1071       C  0.91122030  0.07386366  0.63220525     0.05440
C1072       C  0.85971001  0.06863992  0.62457335    -0.03120
Br1073     Br  0.81048513  0.01821788  0.58729744    -0.02810
H1074       H  0.79892890  0.08663663  0.63930914     0.09350
H1075       H  0.97891463  0.11141724  0.67095971     0.07370
Br1076     Br  0.97804595  0.18615964  0.71969873    -0.03240
C1077       C  0.72712359  0.13319112  0.61120019    -0.09870
C1078       C  0.67905489  0.10134867  0.63299538     0.06320
C1079       C  0.68681556  0.09726090  0.67452330    -0.03640
C1080       C  0.74011486  0.12033776  0.69165299    -0.08090
C1081       C  0.78855022  0.15560026  0.67052673     0.05440
C1082       C  0.77952583  0.16072543  0.62882629    -0.03120
Br1083     Br  0.83664918  0.19763273  0.59086474    -0.02810
H1084       H  0.72421706  0.13749902  0.57924964     0.09350
H1085       H  0.74276654  0.11073550  0.72250348     0.07370
Br1086     Br  0.62668650  0.56618176  0.71053789    -0.03240
C1087       C  0.87639239  0.28081034  0.68465658    -0.09870
C1088       C  0.88691560  0.23872050  0.67624308     0.06320
C1089       C  0.93785606  0.25813179  0.65645415    -0.03640
C1090       C  0.95128299  0.29703757  0.62642430    -0.08090
C1091       C  0.94249914  0.33968747  0.63416509     0.05440
C1092       C  0.90837762  0.33200020  0.66766714    -0.03120
Br1093     Br  0.91762371  0.38997837  0.69899693    -0.02810
H1094       H  0.84811340  0.27701124  0.70698987     0.09350
H1095       H  0.97989736  0.30165025  0.60341149     0.07370
Br1096     Br  0.99608478  0.29558796  0.69450564    -0.03240
C1097       C  0.81385109  0.19054287  0.80654447    -0.09870
C1098       C  0.84550402  0.17394101  0.82865110     0.06320
C1099       C  0.87919153  0.16242836  0.80367093    -0.03640
C1100       C  0.86869096  0.15326825  0.76208464    -0.08090
C1101       C  0.84356961  0.17572805  0.73890388     0.05440
C1102       C  0.81430797  0.19418492  0.76380566    -0.03120
Br1103     Br  0.76374997  0.21569182  0.74566084    -0.02810
H1104       H  0.78682435  0.20000517  0.82280070     0.09350
H1105       H  0.88199711  0.12855488  0.74844057     0.07370
Br1106     Br  0.94568366  0.16516157  0.81999889    -0.03240
C1107       C  0.61429262  0.23854324  0.87716537    -0.09870
C1108       C  0.62743334  0.28942993  0.88922630     0.06320
C1109       C  0.60305366  0.29312834  0.92529358    -0.03640
C1110       C  0.58774089  0.25510306  0.95416496    -0.08090
C1111       C  0.58185164  0.20700504  0.94399742     0.05440
C1112       C  0.59095564  0.19695214  0.90435271    -0.03120
Br1113     Br  0.57344487  0.12854373  0.88642488    -0.02810
H1114       H  0.62506755  0.23180675  0.84753030     0.09350
H1115       H  0.57403607  0.26075717  0.98314730     0.07370
Br1116     Br  0.56918028  0.33473908  0.93114895    -0.03240
C1117       C  0.69743574  0.39604068  0.92780081    -0.09870
C1118       C  0.67778127  0.38803806  0.88814216     0.06320
C1119       C  0.65484307  0.41997009  0.87441078    -0.03640
C1120       C  0.64591167  0.45041788  0.90246576    -0.08090
C1121       C  0.66218349  0.45233598  0.94205377     0.05440
C1122       C  0.69498608  0.43177190  0.95269594    -0.03120
Br1123     Br  0.72952323  0.44413239  0.50350808    -0.02810
H1124       H  0.71034916  0.37063433  0.94133998     0.09350
H1125       H  0.62032979  0.46704283  0.89471913     0.07370
Br1126     Br  0.62159640  0.41878841  0.82356315    -0.03240
C1127       C  0.76989392  0.31361398  0.92866529    -0.09870
C1128       C  0.80069955  0.36676701  0.93876942     0.06320
C1129       C  0.80438149  0.40289896  0.90978606    -0.03640
C1130       C  0.77666157  0.38650052  0.87391995    -0.08090
C1131       C  0.72921486  0.33788536  0.87344141     0.05440
C1132       C  0.73457339  0.29884584  0.89525737    -0.03120
Br1133     Br  0.72218057  0.23617033  0.86861833    -0.02810
H1134       H  0.77375606  0.28434880  0.94582795     0.09350
H1135       H  0.78223707  0.41747052  0.85453202     0.07370
Br1136     Br  0.82068222  0.97076164  0.92296418    -0.03240
C1137       C  0.70404921  0.38240049  0.80137028    -0.09870
C1138       C  0.66456689  0.34026842  0.82326750     0.06320
C1139       C  0.61675753  0.30652669  0.80253617    -0.03640
C1140       C  0.61881775  0.30303321  0.76122782    -0.08090
C1141       C  0.66713471  0.33529478  0.73998053     0.05440
C1142       C  0.70422067  0.38216632  0.76029311    -0.03120
Br1143     Br  0.74801713  0.45167940  0.73763038    -0.02810
H1144       H  0.72928724  0.41921683  0.81568981     0.09350
H1145       H  0.58160644  0.27662388  0.74606502     0.07370
Br1146     Br  0.54659094  0.28331487  0.82509642    -0.03240
C1147       C  0.67345693  0.83828574  0.36788641    -0.03210
C1148       C  0.84855501  0.67799056  0.19003380    -0.03210
C1149       C  0.67304756  0.82496834  0.19532228    -0.03210
C1150       C  0.84217778  0.67118063  0.37692854    -0.03210
O1151       O  0.58764505  0.92187986  0.48524673    -0.88900
C1152       C  0.84211085  0.89039415  0.09669685     1.11140
O1153       O  0.55115540  0.98276565  0.03342747    -1.36710
O1154       O  0.85671869  0.86132220  0.48891039    -0.90380
O1155       O  0.65737865  0.00328503  0.49127821    -0.91050
O1156       O  0.57811192  0.54617432  0.44820630    -0.79870
O1157       O  0.96870992  0.88353078  0.99403592    -1.01960
C1158       C  0.93342916  0.54599806  0.46110532     1.21190
O1159       O  0.52897340  0.56298270  0.03405974    -1.36850
Mn1160     Mn  0.50854586  0.50219158  0.07909720     1.81790
O1161       O  0.96470312  0.53001293  0.44695729    -0.78940
O1162       O  0.83888476  0.92718095  0.49219754    -0.88340
C1163       C  0.93463066  0.54548909  0.10722555     1.12270
C1164       C  0.83302180  0.88540962  0.47609664     1.07000
O1165       O  0.57732808  0.54324802  0.12237461    -0.79880
O1166       O  0.94570405  0.96111477  0.03354823    -1.33580
O1167       O  0.62682753  0.57910921  0.07331327    -0.99090
C1168       C  0.56621983  0.66947994  0.47595553     1.05710
Mn1169     Mn  0.88503590  0.48297983  0.03553704     1.48570
O1170       O  0.60408701  0.66646952  0.49346340    -0.88290
Mn1171     Mn  0.63776876  0.53727420  0.03517002     1.49560
O1172       O  0.58632606  0.91459976  0.07555295    -0.92170
C1173       C  0.96550099  0.88796942  0.45779415     1.18900
C1174       C  0.62934171  0.95108490  0.09080823     1.10960
Mn1175     Mn  0.50813324  0.50267502  0.48812835     1.80970
O1176       O  0.92718152  0.54245513  0.07121141    -0.97320
Mn1177     Mn  0.53048959  0.90364096  0.03134044     1.49260
C1178       C  0.63294866  0.96008623  0.47399280     1.07480
Mn1179     Mn  0.47428856  0.59353656  0.03271760     1.49930
C1180       C  0.55733166  0.66310802  0.09479680     1.10390
O1181       O  0.63027145  0.58352154  0.49763296    -1.03120
O1182       O  0.84624892  0.93284233  0.08371772    -0.92790
C1183       C  0.62542822  0.57874588  0.46125760     1.21670
O1184       O  0.92644009  0.54024979  0.49686249    -1.03510
O1185       O  0.86113144  0.86491766  0.07873735    -0.90910
O1186       O  0.51346235  0.64616230  0.07608234    -0.90520
O1187       O  0.65339346  0.99756260  0.07870759    -0.90540
Mn1188     Mn  0.91463299  0.87696039  0.03306283     1.47860
O1189       O  0.96619119  0.52913322  0.12003518    -0.79010
C1190       C  0.62474648  0.57426997  0.10944666     1.14720
O1191       O  0.98105403  0.93478754  0.44590363    -0.77750
O1192       O  0.98236364  0.93491254  0.11898436    -0.77360
Mn1193     Mn  0.61139566  0.62102541  0.03689907     1.51060
O1194       O  0.51714345  0.64570729  0.48702684    -0.89710
O1195       O  0.97030507  0.88260656  0.07075122    -0.97240
O1196       O  0.59715742  0.65796912  0.08377210    -0.92250
C1197       C  0.96827943  0.88860463  0.10711330     1.12510
C1198       C  0.90426701  0.57614431  0.39718513    -0.09870
C1199       C  0.91119407  0.57837750  0.43909779     0.06320
C1200       C  0.88674800  0.60428252  0.46017655    -0.03640
C1201       C  0.86038572  0.62814133  0.43973356    -0.08090
C1202       C  0.85722824  0.62948217  0.39736257     0.05440
C1203       C  0.86955147  0.59245558  0.37844632    -0.03120
Br1204     Br  0.83029020  0.54948224  0.33332589    -0.02810
H1205       H  0.91673497  0.55235331  0.38018610     0.09350
H1206       H  0.84756868  0.65086905  0.45751863     0.07370
Br1207     Br  0.39322572  0.61683219  0.51686022    -0.03240
C1208       C  0.68184793  0.58767478  0.39834596    -0.09870
C1209       C  0.67687591  0.60730104  0.43560990     0.06320
C1210       C  0.72443393  0.65189360  0.45002271    -0.03640
C1211       C  0.77413882  0.67302273  0.42911860    -0.08090
C1212       C  0.78138688  0.65170599  0.39287644     0.05440
C1213       C  0.73224557  0.60806965  0.37754928    -0.03120
Br1214     Br  0.72675821  0.57282092  0.32799404    -0.02810
H1215       H  0.64626044  0.55476571  0.38565127     0.09350
H1216       H  0.80829127  0.70565855  0.44334323     0.07370
Br1217     Br  0.72620845  0.68744176  0.49890286    -0.03240
C1218       C  0.87405147  0.77448799  0.38119307    -0.09870
C1219       C  0.88156091  0.73129787  0.39280270     0.06320
C1220       C  0.92447709  0.74638286  0.42114287    -0.03640
C1221       C  0.94506097  0.79358007  0.44390611    -0.08090
C1222       C  0.93894980  0.83669030  0.43190070     0.05440
C1223       C  0.90488470  0.82643328  0.39780139    -0.03120
Br1224     Br  0.90030612  0.88207741  0.37173688    -0.02810
H1225       H  0.84495065  0.76901390  0.35824225     0.09350
H1226       H  0.97117237  0.79854832  0.46920887     0.07370
Br1227     Br  0.96994582  0.71528703  0.42022470    -0.03240
C1228       C  0.57979634  0.68337436  0.16582890    -0.09870
C1229       C  0.56352197  0.69420027  0.12913104     0.06320
C1230       C  0.56102750  0.73971595  0.12371772    -0.03640
C1231       C  0.58749943  0.77898316  0.15097187    -0.08090
C1232       C  0.62190371  0.77526700  0.18043966     0.05440
C1233       C  0.60788346  0.72404252  0.19302760    -0.03120
Br1234     Br  0.63305262  0.70724224  0.24168864    -0.02810
H1235       H  0.57661605  0.64552504  0.17116740     0.09350
H1236       H  0.58678305  0.81438398  0.14399944     0.07370
Br1237     Br  0.53698935  0.75622057  0.07442253    -0.03240
C1238       C  0.68828352  0.91816687  0.10870152    -0.09870
C1239       C  0.65478294  0.93689147  0.12186775     0.06320
C1240       C  0.63323830  0.92556561  0.16022780    -0.03640
C1241       C  0.64588052  0.89530201  0.18496291    -0.08090
C1242       C  0.67621265  0.87130451  0.17089198     0.05440
C1243       C  0.69238624  0.88001847  0.12982875    -0.03120
Br1244     Br  0.69142569  0.82920321  0.09266294    -0.02810
H1245       H  0.69994671  0.92349602  0.07788974     0.09350
H1246       H  0.62561020  0.88551458  0.21361405     0.07370
Br1247     Br  0.57840125  0.94132040  0.17738550    -0.03240
C1248       C  0.77862625  0.81278646  0.13384370    -0.09870
C1249       C  0.81092718  0.86683392  0.13306099     0.06320
C1250       C  0.81185836  0.89469689  0.16754951    -0.03640
C1251       C  0.77537738  0.86801848  0.19808260    -0.08090
C1252       C  0.72709474  0.82211939  0.18909891     0.05440
C1253       C  0.73529237  0.79010339  0.16048886    -0.03120
Br1254     Br  0.69970365  0.71664714  0.15601385    -0.02810
H1255       H  0.78259725  0.78890869  0.11067771     0.09350
H1256       H  0.78305683  0.88548803  0.22717351     0.07370
Br1257     Br  0.86264313  0.96602796  0.17739374    -0.03240
C1258       C  0.84072392  0.59853596  0.14540207    -0.09870
C1259       C  0.87288343  0.64073828  0.17234372     0.06320
C1260       C  0.92510746  0.64374259  0.18062473    -0.03640
C1261       C  0.94138612  0.60967512  0.16213623    -0.08090
C1262       C  0.91124194  0.57387816  0.13220352     0.05440
C1263       C  0.85973714  0.56866309  0.12456334    -0.03120
Br1264     Br  0.81052707  0.51826606  0.08726574    -0.02810
H1265       H  0.79895402  0.58665680  0.13929521     0.09350
H1266       H  0.97892309  0.61141345  0.17097290     0.07370
Br1267     Br  0.97805258  0.68615087  0.21971762    -0.03240
C1268       C  0.72712772  0.63319371  0.11121170    -0.09870
C1269       C  0.67906247  0.60134216  0.13300683     0.06320
C1270       C  0.68682658  0.59724519  0.17453256    -0.03640
C1271       C  0.74012716  0.62032453  0.19165956    -0.08090
C1272       C  0.78855886  0.65559852  0.17053431     0.05440
C1273       C  0.77953001  0.66073054  0.12883595    -0.03120
Br1274     Br  0.83664470  0.69764683  0.09087081    -0.02810
H1275       H  0.72421812  0.63750778  0.07926238     0.09350
H1276       H  0.74278281  0.61071586  0.22250769     0.07370
Br1277     Br  0.62670057  0.06613953  0.21054788    -0.03240
C1278       C  0.87641955  0.78081852  0.18467718    -0.09870
C1279       C  0.88692458  0.73872072  0.17624778     0.06320
C1280       C  0.93785032  0.75812177  0.15644000    -0.03640
C1281       C  0.95126710  0.79702822  0.12641277    -0.08090
C1282       C  0.94249875  0.83968510  0.13416497     0.05440
C1283       C  0.90839765  0.83200543  0.16767981    -0.03120
Br1284     Br  0.91764301  0.88999006  0.19900146    -0.02810
H1285       H  0.84816887  0.77702913  0.20703216     0.09350
H1286       H  0.97986158  0.80163014  0.10338650     0.07370
Br1287     Br  0.99610257  0.79556789  0.19447336    -0.03240
C1288       C  0.81382894  0.69053321  0.30654381    -0.09870
C1289       C  0.84548208  0.67393670  0.32865632     0.06320
C1290       C  0.87918725  0.66244072  0.30368325    -0.03640
C1291       C  0.86869821  0.65327950  0.26209589    -0.08090
C1292       C  0.84357457  0.67573167  0.23890957     0.05440
C1293       C  0.81430020  0.69418078  0.26380495    -0.03120
Br1294     Br  0.76374945  0.71568979  0.24564635    -0.02810
H1295       H  0.78679532  0.69999133  0.32279491     0.09350
H1296       H  0.88200869  0.62856707  0.24845660     0.07370
Br1297     Br  0.94568237  0.66519382  0.32002837    -0.03240
C1298       C  0.61427153  0.73853161  0.37715974    -0.09870
C1299       C  0.62741011  0.78941973  0.38921094     0.06320
C1300       C  0.60299492  0.79312356  0.42525696    -0.03640
C1301       C  0.58767322  0.75510757  0.45414009    -0.08090
C1302       C  0.58180236  0.70700850  0.44399072     0.05440
C1303       C  0.59092539  0.69694806  0.40435245    -0.03120
Br1304     Br  0.57342457  0.62853747  0.38643877    -0.02810
H1305       H  0.62505974  0.73179026  0.34753084     0.09350
H1306       H  0.57394713  0.76076660  0.48311171     0.07370
Br1307     Br  0.56911577  0.83474163  0.43105259    -0.03240
C1308       C  0.69742172  0.89599949  0.42780982    -0.09870
C1309       C  0.67779453  0.88802626  0.38814419     0.06320
C1310       C  0.65489266  0.91998863  0.37441106    -0.03640
C1311       C  0.64595808  0.95043140  0.40246969    -0.08090
C1312       C  0.66219061  0.95231261  0.44206424     0.05440
C1313       C  0.69497043  0.93172510  0.45271042    -0.03120
Br1314     Br  0.72952939  0.94417649  0.00349938    -0.02810
H1315       H  0.71032118  0.87058117  0.44134583     0.09350
H1316       H  0.62039607  0.96707600  0.39471842     0.07370
Br1317     Br  0.62167442  0.91884057  0.32355779    -0.03240
C1318       C  0.76986232  0.81357976  0.42868020    -0.09870
C1319       C  0.80067624  0.86673393  0.43877681     0.06320
C1320       C  0.80436743  0.90285976  0.40978240    -0.03640
C1321       C  0.77665567  0.88643606  0.37392597    -0.08090
C1322       C  0.72919894  0.83784903  0.37344310     0.05440
C1323       C  0.73454143  0.79880612  0.39527230    -0.03120
Br1324     Br  0.72215318  0.73613261  0.36863430    -0.02810
H1325       H  0.77372049  0.78431170  0.44585170     0.09350
H1326       H  0.78224223  0.91750127  0.35443620     0.07370
Br1327     Br  0.82067133  0.47072744  0.42294201    -0.03240
C1328       C  0.70405781  0.88237670  0.30136246    -0.09870
C1329       C  0.66457371  0.84026278  0.32326260     0.06320
C1330       C  0.61676061  0.80653146  0.30252594    -0.03640
C1331       C  0.61882814  0.80303892  0.26121890    -0.08090
C1332       C  0.66714989  0.83529361  0.23997563     0.05440
C1333       C  0.70423897  0.88216199  0.26029181    -0.03120
Br1334     Br  0.74802937  0.95167817  0.23763250    -0.02810
H1335       H  0.72937724  0.91927004  0.31573588     0.09350
H1336       H  0.58161252  0.77663489  0.24605035     0.07370
Br1337     Br  0.54659425  0.78334916  0.32507606    -0.03240
C1338       C  0.67346155  0.83830241  0.86789118    -0.03210
C1339       C  0.84854553  0.67798943  0.69002758    -0.03210
C1340       C  0.67302849  0.82496357  0.69532679    -0.03210
C1341       C  0.84221039  0.67119218  0.87692424    -0.03210
O1342       O  0.58764984  0.92190205  0.98524457    -0.88900
C1343       C  0.84209542  0.89038183  0.59670188     1.11140
O1344       O  0.55113904  0.98276152  0.53342187    -1.36710
O1345       O  0.85674023  0.86134167  0.98889972    -0.90380
O1346       O  0.65739801  0.00329602  0.99128671    -0.91050
O1347       O  0.57814628  0.54618613  0.94821462    -0.79870
O1348       O  0.96869546  0.88352410  0.49403739    -1.01960
C1349       C  0.93346381  0.54601036  0.96110193     1.21190
O1350       O  0.52894823  0.56297804  0.53405545    -1.36850
Mn1351     Mn  0.50853209  0.50218928  0.57909383     1.81790
O1352       O  0.96473888  0.53002556  0.94695636    -0.78940
O1353       O  0.83890353  0.92719733  0.99219953    -0.88340
C1354       C  0.93460715  0.54547360  0.60722710     1.12270
C1355       C  0.83304308  0.88543129  0.97609118     1.07000
O1356       O  0.57732001  0.54325466  0.62236508    -0.79880
O1357       O  0.94568451  0.96110574  0.53354961    -1.33580
O1358       O  0.62681687  0.57911653  0.57330163    -0.99090
C1359       C  0.56626343  0.66947268  0.97595625     1.05710
Mn1360     Mn  0.88501176  0.48296470  0.53553788     1.48570
O1361       O  0.60412937  0.66647970  0.99348106    -0.88290
Mn1362     Mn  0.63775066  0.53727154  0.53516058     1.49560
O1363       O  0.58631615  0.91460027  0.57555160    -0.92170
C1364       C  0.96552320  0.88797905  0.95779220     1.18900
C1365       C  0.62933148  0.95108674  0.59080565     1.10960
Mn1366     Mn  0.50816032  0.50268398  0.98813087     1.80970
O1367       O  0.92715514  0.54243863  0.57121351    -0.97320
Mn1368     Mn  0.53047950  0.90363603  0.53133948     1.49260
C1369       C  0.63295334  0.96010679  0.97399048     1.07480
Mn1370     Mn  0.47425732  0.59352872  0.53272284     1.49930
C1371       C  0.55731393  0.66310695  0.59479381     1.10390
O1372       O  0.63030415  0.58353267  0.99764335    -1.03120
O1373       O  0.84622604  0.93282460  0.58371740    -0.92790
C1374       C  0.62546231  0.57875775  0.96126730     1.21670
O1375       O  0.92646882  0.54025947  0.99685885    -1.03510
O1376       O  0.86112330  0.86490842  0.57874702    -0.90910
O1377       O  0.51343320  0.64614863  0.57609218    -0.90520
O1378       O  0.65338190  0.99756448  0.57870269    -0.90540
Mn1379     Mn  0.91462042  0.87695220  0.53306806     1.47860
O1380       O  0.96617570  0.52912599  0.62003453    -0.79010
C1381       C  0.62473742  0.57427813  0.60943542     1.14720
O1382       O  0.98108350  0.93479918  0.94590317    -0.77750
O1383       O  0.98236133  0.93491417  0.61898402    -0.77360
Mn1384     Mn  0.61136987  0.62102378  0.53688507     1.51060
O1385       O  0.51718359  0.64569635  0.98701687    -0.89710
O1386       O  0.97029927  0.88260778  0.57075131    -0.97240
O1387       O  0.59714123  0.65797769  0.58375645    -0.92250
C1388       C  0.96827798  0.88860638  0.60711337     1.12510
C1389       C  0.90429763  0.57615257  0.89718211    -0.09870
C1390       C  0.91124273  0.57840071  0.93909333     0.06320
C1391       C  0.88682133  0.60432837  0.96017230    -0.03640
C1392       C  0.86045626  0.62818495  0.93973080    -0.08090
C1393       C  0.85727283  0.62950359  0.89736051     0.05440
C1394       C  0.86957959  0.59246414  0.87844744    -0.03120
Br1395     Br  0.83029412  0.54947724  0.83333932    -0.02810
H1396       H  0.91674884  0.55234740  0.88018472     0.09350
H1397       H  0.84765305  0.65092456  0.95751467     0.07370
Br1398     Br  0.39333259  0.61690748  0.01685226    -0.03240
C1399       C  0.68188134  0.58768214  0.89835508    -0.09870
C1400       C  0.67691198  0.60731019  0.93561917     0.06320
C1401       C  0.72447293  0.65190231  0.95002968    -0.03640
C1402       C  0.77417640  0.67303043  0.92912255    -0.08090
C1403       C  0.78142054  0.65171408  0.89287873     0.05440
C1404       C  0.73227643  0.60807774  0.87755419    -0.03120
Br1405     Br  0.72677810  0.57283207  0.82799515    -0.02810
H1406       H  0.64629304  0.55477154  0.88566268     0.09350
H1407       H  0.80833098  0.70566676  0.94334499     0.07370
Br1408     Br  0.72625357  0.68745146  0.99891041    -0.03240
C1409       C  0.87407203  0.77449828  0.88119167    -0.09870
C1410       C  0.88159363  0.73131248  0.89279280     0.06320
C1411       C  0.92452434  0.74640391  0.92112086    -0.03640
C1412       C  0.94510155  0.79359592  0.94389071    -0.08090
C1413       C  0.93897862  0.83670283  0.93189443     0.05440
C1414       C  0.90490414  0.82644358  0.89780049    -0.03120
Br1415     Br  0.90030661  0.88208387  0.87174653    -0.02810
H1416       H  0.84496166  0.76902119  0.85824815     0.09350
H1417       H  0.97120628  0.79855933  0.96919610     0.07370
Br1418     Br  0.97001029  0.71532377  0.92017366    -0.03240
C1419       C  0.57978794  0.68337204  0.66582566    -0.09870
C1420       C  0.56351389  0.69420133  0.62912888     0.06320
C1421       C  0.56101400  0.73971495  0.62372004    -0.03640
C1422       C  0.58747280  0.77897612  0.65098208    -0.08090
C1423       C  0.62188248  0.77526121  0.68044633     0.05440
C1424       C  0.60786878  0.72403665  0.69302875    -0.03120
Br1425     Br  0.63303510  0.70723371  0.74169018    -0.02810
H1426       H  0.57660913  0.64552281  0.67116128     0.09350
H1427       H  0.58674912  0.81437534  0.64401653     0.07370
Br1428     Br  0.53698635  0.75622410  0.57442181    -0.03240
C1429       C  0.68824867  0.91813934  0.60869285    -0.09870
C1430       C  0.65477341  0.93689033  0.62186394     0.06320
C1431       C  0.63323989  0.92557749  0.66022773    -0.03640
C1432       C  0.64587289  0.89530604  0.68496242    -0.08090
C1433       C  0.67619335  0.87129658  0.67089144     0.05440
C1434       C  0.69235500  0.87999676  0.62982550    -0.03120
Br1435     Br  0.69139884  0.82917584  0.59266751    -0.02810
H1436       H  0.69989398  0.92345111  0.57787832     0.09350
H1437       H  0.62560758  0.88552642  0.71361556     0.07370
Br1438     Br  0.57842541  0.94136010  0.67739181    -0.03240
C1439       C  0.77860873  0.81277732  0.63385036    -0.09870
C1440       C  0.81091032  0.86682417  0.63306615     0.06320
C1441       C  0.81184111  0.89468902  0.66755363    -0.03640
C1442       C  0.77535833  0.86801293  0.69808652    -0.08090
C1443       C  0.72707586  0.82211357  0.68910388     0.05440
C1444       C  0.73527474  0.79009605  0.66049571    -0.03120
Br1445     Br  0.69969534  0.71663995  0.65602749    -0.02810
H1446       H  0.78258086  0.78889829  0.61068595     0.09350
H1447       H  0.78303729  0.88548301  0.72717721     0.07370
Br1448     Br  0.86263156  0.96601807  0.67739923    -0.03240
C1449       C  0.84070222  0.59852063  0.64540750    -0.09870
C1450       C  0.87287076  0.64073519  0.67233698     0.06320
C1451       C  0.92509769  0.64374441  0.68061233    -0.03640
C1452       C  0.94137365  0.60967338  0.66212754    -0.08090
C1453       C  0.91122027  0.57386365  0.63220526     0.05440
C1454       C  0.85970997  0.56863990  0.62457337    -0.03120
Br1455     Br  0.81048507  0.51821784  0.58729748    -0.02810
H1456       H  0.79892886  0.58663661  0.63930916     0.09350
H1457       H  0.97891461  0.61141724  0.67095970     0.07370
Br1458     Br  0.97804592  0.68615962  0.71969874    -0.03240
C1459       C  0.72712356  0.63319111  0.61120019    -0.09870
C1460       C  0.67905486  0.60134868  0.63299539     0.06320
C1461       C  0.68681554  0.59726092  0.67452331    -0.03640
C1462       C  0.74011483  0.62033778  0.69165299    -0.08090
C1463       C  0.78855020  0.65560027  0.67052674     0.05440
C1464       C  0.77952580  0.66072541  0.62882629    -0.03120
Br1465     Br  0.83664915  0.69763268  0.59086473    -0.02810
H1466       H  0.72421703  0.63749899  0.57924964     0.09350
H1467       H  0.74276652  0.61073552  0.72250349     0.07370
Br1468     Br  0.62668652  0.06618172  0.71053788    -0.03240
C1469       C  0.87639249  0.78081038  0.68465665    -0.09870
C1470       C  0.88691560  0.73872049  0.67624307     0.06320
C1471       C  0.93785599  0.75813173  0.65645406    -0.03640
C1472       C  0.95128287  0.79703751  0.62642422    -0.08090
C1473       C  0.94249913  0.83968747  0.63416508     0.05440
C1474       C  0.90837771  0.83200023  0.66766718    -0.03120
Br1475     Br  0.91762386  0.88997843  0.69899697    -0.02810
H1476       H  0.84811362  0.77701133  0.70699003     0.09350
H1477       H  0.97989714  0.80165012  0.60341134     0.07370
Br1478     Br  0.99608484  0.79558789  0.69450546    -0.03240
C1479       C  0.81385107  0.69054289  0.80654447    -0.09870
C1480       C  0.84550400  0.67394102  0.82865110     0.06320
C1481       C  0.87919150  0.66242836  0.80367093    -0.03640
C1482       C  0.86869093  0.65326825  0.76208465    -0.08090
C1483       C  0.84356959  0.67572805  0.73890388     0.05440
C1484       C  0.81430796  0.69418494  0.76380565    -0.03120
Br1485     Br  0.76374999  0.71569187  0.74566081    -0.02810
H1486       H  0.78682433  0.70000519  0.82280069     0.09350
H1487       H  0.88199707  0.62855487  0.74844058     0.07370
Br1488     Br  0.94568364  0.66516158  0.81999889    -0.03240
C1489       C  0.61429263  0.73854323  0.87716537    -0.09870
C1490       C  0.62743334  0.78942992  0.88922629     0.06320
C1491       C  0.60305364  0.79312833  0.92529356    -0.03640
C1492       C  0.58774086  0.75510306  0.95416494    -0.08090
C1493       C  0.58185162  0.70700504  0.94399742     0.05440
C1494       C  0.59095563  0.69695213  0.90435271    -0.03120
Br1495     Br  0.57344487  0.62854372  0.88642488    -0.02810
H1496       H  0.62506757  0.73180674  0.84753030     0.09350
H1497       H  0.57403602  0.76075717  0.98314728     0.07370
Br1498     Br  0.56918025  0.83473908  0.93114890    -0.03240
C1499       C  0.69743574  0.89604063  0.92780081    -0.09870
C1500       C  0.67778129  0.88803804  0.88814216     0.06320
C1501       C  0.65484311  0.91997010  0.87441079    -0.03640
C1502       C  0.64591172  0.95041789  0.90246577    -0.08090
C1503       C  0.66218352  0.95233596  0.94205378     0.05440
C1504       C  0.69498608  0.93177185  0.95269596    -0.03120
Br1505     Br  0.72952320  0.94413230  0.50350810    -0.02810
H1506       H  0.71034914  0.87063427  0.94133998     0.09350
H1507       H  0.62032986  0.96704286  0.89471914     0.07370
Br1508     Br  0.62159643  0.91878842  0.82356316    -0.03240
C1509       C  0.76989393  0.81361397  0.92866530    -0.09870
C1510       C  0.80069957  0.86676700  0.93876943     0.06320
C1511       C  0.80438150  0.90289896  0.90978607    -0.03640
C1512       C  0.77666159  0.88650051  0.87391996    -0.08090
C1513       C  0.72921488  0.83788535  0.87344141     0.05440
C1514       C  0.73457341  0.79884583  0.89525738    -0.03120
Br1515     Br  0.72218058  0.73617031  0.86861835    -0.02810
H1516       H  0.77375608  0.78434879  0.94582796     0.09350
H1517       H  0.78223709  0.91747050  0.85453204     0.07370
Br1518     Br  0.82068222  0.47076165  0.92296416    -0.03240
C1519       C  0.70404924  0.88240050  0.80137029    -0.09870
C1520       C  0.66456692  0.84026842  0.82326750     0.06320
C1521       C  0.61675756  0.80652670  0.80253616    -0.03640
C1522       C  0.61881780  0.80303323  0.76122781    -0.08090
C1523       C  0.66713477  0.83529480  0.73998053     0.05440
C1524       C  0.70422072  0.88216633  0.76029312    -0.03120
Br1525     Br  0.74801718  0.95167942  0.73763040    -0.02810
H1526       H  0.72928726  0.91921682  0.81568981     0.09350
H1527       H  0.58160649  0.77662391  0.74606500     0.07370
Br1528     Br  0.54659097  0.78331485  0.82509640    -0.03240
loop_ 
_geom_bond_atom_site_label_1 
_geom_bond_atom_site_label_2 
_geom_bond_distance 
_geom_bond_site_symmetry_2 
_ccdc_geom_bond_type 
C1          C153   1.560       .  S
C1          C163   1.557       .  S
C1          C176   1.592       .  S
C1          C183   1.515       .  S
C2          C113   1.659       .  S
C2          C126   1.623       .  S
C2          C133   1.635       .  S
C2          C146   1.636       .  S
C3           C86   1.547       .  S
C3           C96   1.550       .  S
C3          C106   1.584       .  S
C3          C186   1.546       .  S
C4           C56   1.628       .  S
C4           C66   1.614       .  S
C4           C73   1.644       .  S
C4          C143   1.614       .  S
O5           C32   1.278       .  A
O5         Mn222   2.104       .  S
C6           O39   1.265       .  A
C6           O36   1.269       .  A
C6          C103   1.462       .  S
O7          Mn31   2.099       .  S
O7         Mn396   2.185       .  S
O7         Mn407   2.172       .  S
O7         Mn602   2.189   1_554  S
O8           C18   1.262       .  A
O8         Mn233   2.076       .  S
O9           C32   1.247       .  A
O9         Mn598   1.997       .  S
O10          C37   1.279       .  A
O10         Mn29   2.204       .  S
O11         Mn42   1.947   1_556  S
O11        Mn795   1.981   1_556  S
O11         C218   1.224       .  S
C12          O15   1.277       .  A
C12          C53   1.556       .  S
C12          O38   1.208       .  S
O13         Mn33   2.133   1_455  S
O13         Mn14   2.185       .  S
O13         Mn47   2.109       .  S
O13        Mn220   2.190   1_554  S
Mn14         O19   2.237       .  S
Mn14        O807   2.203   1_455  S
Mn14       O1192   2.189   1_445  S
Mn14        O389   2.185   1_545  S
Mn14       O1166   2.192   1_445  S
O15        Mn793   2.235       .  S
O16          C18   1.272       .  A
O16        Mn596   2.090       .  S
C17          O43   1.275       .  A
C17         C116   1.538       .  S
C17          O30   1.215       .  S
C18         C173   1.480       .  S
O19          C44   1.272       .  A
O20         Mn42   2.178       .  S
O20       Mn1160   2.192       .  S
O20        Mn405   2.105       .  S
O20       Mn1366   2.192   1_554  S
O21         Mn25   1.895       .  S
O21         Mn47   1.924       .  S
O21          C44   1.212       .  S
C22          O48   1.266       .  A
C22          O24   1.258       .  A
C22         C156   1.440       .  S
Mn23        O589   2.090   1_554  S
Mn23        O418   2.093       .  S
Mn23        O402   2.105       .  S
Mn23         O30   1.958   1_565  S
Mn23        O229   1.986   1_564  S
O24        Mn238   2.047       .  S
Mn25        O582   1.997   1_554  S
Mn25        O423   2.041   1_545  S
Mn25        O389   2.172   1_545  S
Mn25        O226   1.933   1_554  S
O26          C28   1.267       .  A
O26         Mn31   2.064       .  S
C27          O45   1.283       .  A
C27          C76   1.569       .  S
C27         O202   1.224       .  S
C28          O41   1.256       .  A
C28          C93   1.433       .  S
Mn29        O779   2.235   1_455  S
Mn29       O1191   2.244   1_445  S
Mn29        O580   2.189   1_545  S
Mn29        O204   2.190       .  S
Mn29       O1357   2.192   1_445  S
O30        Mn797   1.930       .  S
Mn31        O196   2.104   1_554  S
Mn31        O775   1.981   1_454  S
Mn31        O813   1.997   1_455  S
C32         C166   1.435       .  S
Mn33         O40   2.004   1_655  S
Mn33        O239   2.081   1_654  S
Mn33        O794   1.930       .  S
Mn33        O993   1.903   1_554  S
C34          O40   1.251       .  A
C34          O50   1.262       .  A
C34          C83   1.420       .  S
O35        Mn216   1.933       .  S
O35        Mn238   1.946       .  S
O35          C37   1.221       .  S
O36        Mn405   2.093       .  S
C37          C63   1.537       .  S
O38        Mn214   1.986   1_545  S
O38        Mn988   1.903       .  S
O39         Mn42   2.055       .  S
O41        Mn407   2.041       .  S
Mn42        O199   2.076   1_554  S
Mn42         O49   1.954       .  S
O43        Mn778   2.203       .  S
C44         C123   1.551       .  S
O45       Mn1175   2.244       .  S
O46          C51   1.277       .  A
O46       Mn1160   2.189       .  S
Mn47         O50   2.052       .  S
Mn47        O215   2.047   1_554  S
Mn47        O226   1.946   1_554  S
O48        Mn224   2.081   1_455  S
O49        Mn795   1.997       .  S
O49          C51   1.231       .  S
C51         C136   1.545       .  S
C52          C53   1.409       .  A
C52          C57   1.428       .  A
C52          H59   1.084       .  S
C53          C54   1.437       .  A
C54          C55   1.421       .  A
C54        Br825   1.918       .  S
C55          C56   1.418       .  A
C55          H60   1.079       .  S
C56          C57   1.439       .  A
C57         Br58   1.925       .  S
Br61        C818   1.918       .  S
C62          C63   1.406       .  A
C62          C67   1.428       .  A
C62          H69   1.081       .  S
C63          C64   1.422       .  A
C64          C65   1.413       .  A
C64         Br71   1.923       .  S
C65          C66   1.422       .  A
C65          H70   1.080       .  S
C66          C67   1.443       .  A
C67         Br68   1.915       .  S
C72          C73   1.437       .  A
C72          C77   1.444       .  A
C72          H79   1.075       .  S
C73          C74   1.425       .  A
C74          C75   1.428       .  A
C74         Br81   1.906       .  S
C75          C76   1.416       .  A
C75          H80   1.082       .  S
C76          C77   1.422       .  A
C77         Br78   1.909       .  S
C82          C83   1.398       .  A
C82          C87   1.394       .  A
C82          H89   1.084       .  S
C83          C84   1.383       .  A
C84          C85   1.366       .  A
C84         Br91   1.929       .  S
C85          C86   1.422       .  A
C85          H90   1.074       .  S
C86          C87   1.418       .  A
C87         Br88   1.930       .  S
C92          C93   1.379       .  A
C92          C97   1.375       .  A
C92          H99   1.068       .  S
C93          C94   1.388       .  A
C94          C95   1.381       .  A
C94        Br101   1.910       .  S
C95          C96   1.429       .  A
C95         H100   1.080       .  S
C96          C97   1.429       .  A
C97         Br98   1.928       .  S
C102        C103   1.389       .  A
C102        C107   1.393       .  A
C102        H109   1.085       .  S
C103        C104   1.404       .  A
C104        C105   1.389       .  A
C104       Br111   1.898       .  S
C105        C106   1.401       .  A
C105        H110   1.068       .  S
C106        C107   1.435       .  A
C107       Br108   1.885       .  S
C112        C113   1.435       .  A
C112        C117   1.415       .  A
C112        H119   1.073       .  S
C113        C114   1.460       .  A
C114        C115   1.429       .  A
C114       Br121   1.911       .  S
C115        C116   1.394       .  A
C115        H120   1.077       .  S
C116        C117   1.409       .  A
C117       Br118   1.909       .  S
C122        C123   1.418       .  A
C122        C127   1.419       .  A
C122        H129   1.081       .  S
C123        C124   1.417       .  A
C124        C125   1.432       .  A
C124       Br513   1.912       .  S
C125        C126   1.435       .  A
C125        H130   1.080       .  S
C126        C127   1.435       .  A
C127       Br128   1.919       .  S
Br131       C506   1.912       .  S
C132        C133   1.432       .  A
C132        C137   1.438       .  A
C132        H139   1.059       .  S
C133        C134   1.426       .  A
C134        C135   1.425       .  A
C134       Br141   1.935       .  S
C135        C136   1.413       .  A
C135        H140   1.076       .  S
C136        C137   1.422       .  A
C137       Br138   1.901       .  S
C142        C143   1.416       .  A
C142        C147   1.430       .  A
C142        H149   1.079       .  S
C143        C144   1.426       .  A
C144        C145   1.416       .  A
C144       Br151   1.919       .  S
C145        C146   1.412       .  A
C145        H150   1.068       .  S
C146        C147   1.452       .  A
C147       Br148   1.920       .  S
C152        C153   1.408       .  A
C152        C157   1.401       .  A
C152        H159   1.082       .  S
C153        C154   1.418       .  A
C154        C155   1.375       .  A
C154       Br161   1.895       .  S
C155        C156   1.379       .  A
C155        H160   1.085       .  S
C156        C157   1.407       .  A
C157       Br158   1.911       .  S
C162        C163   1.408       .  A
C162        C167   1.365       .  A
C162        H169   1.076       .  S
C163        C164   1.450       .  A
C164        C165   1.399       .  A
C164       Br171   1.930       .  S
C165        C166   1.390       .  A
C165        H170   1.082       .  S
C166        C167   1.377       .  A
C167       Br359   1.898       .  S
Br168       C358   1.898   1_554  S
C172        C173   1.404       .  A
C172        C177   1.413       .  A
C172        H179   1.081       .  S
C173        C174   1.401       .  A
C174        C175   1.379       .  A
C174       Br563   1.862       .  S
C175        C176   1.399       .  A
C175        H180   1.067       .  S
C176        C177   1.427       .  A
C177       Br178   1.913       .  S
Br181       C556   1.862       .  S
C182        C183   1.400       .  A
C182        C187   1.371       .  A
C182        H189   1.074       .  S
C183        C184   1.403       .  A
C184        C185   1.386       .  A
C184       Br191   1.910       .  S
C185        C186   1.415       .  A
C185        H190   1.078       .  S
C186        C187   1.426       .  A
C187       Br188   1.949       .  S
C192        C344   1.560       .  S
C192        C354   1.557       .  S
C192        C367   1.592       .  S
C192        C374   1.515       .  S
C193        C304   1.659       .  S
C193        C317   1.623       .  S
C193        C324   1.635       .  S
C193        C337   1.636       .  S
C194        C277   1.547       .  S
C194        C287   1.550       .  S
C194        C297   1.584       .  S
C194        C377   1.546       .  S
C195        C247   1.628       .  S
C195        C257   1.614       .  S
C195        C264   1.644       .  S
C195        C334   1.614       .  S
O196        C223   1.278       .  A
C197        O230   1.265       .  A
C197        O227   1.269       .  A
C197        C294   1.462       .  S
O198       Mn587   2.185       .  S
O198       Mn598   2.172       .  S
O198       Mn411   2.189       .  S
O198       Mn222   2.099       .  S
O199        C209   1.262       .  A
O200        C223   1.247       .  A
O200       Mn407   1.997   1_556  S
O201        C228   1.279       .  A
O201       Mn220   2.204       .  S
O202       Mn233   1.947       .  S
O202       Mn986   1.981       .  S
C203        O206   1.277       .  A
C203        C244   1.556       .  S
C203        O229   1.208       .  S
O204       Mn224   2.133   1_455  S
O204       Mn205   2.185       .  S
O204       Mn238   2.109       .  S
Mn205       O998   2.203   1_455  S
Mn205       O210   2.237       .  S
Mn205      O1383   2.189   1_445  S
Mn205       O580   2.185   1_545  S
Mn205      O1357   2.192   1_445  S
O206       Mn984   2.235       .  S
O207        C209   1.272       .  A
O207       Mn405   2.090   1_556  S
C208        O234   1.275       .  A
C208        C307   1.538       .  S
C208        O221   1.215       .  S
C209        C364   1.480       .  S
O210        C235   1.272       .  A
O211      Mn1351   2.192       .  S
O211       Mn596   2.105       .  S
O211       Mn233   2.178       .  S
O211      Mn1175   2.192       .  S
O212       Mn216   1.895       .  S
O212       Mn238   1.925       .  S
O212        C235   1.212       .  S
C213        O239   1.266       .  A
C213        O215   1.258       .  A
C213        C347   1.440       .  S
Mn214       O398   2.090       .  S
Mn214       O609   2.093       .  S
Mn214       O593   2.105       .  S
Mn214       O221   1.958   1_565  S
Mn216       O391   1.997       .  S
Mn216       O614   2.041   1_545  S
Mn216       O580   2.172   1_545  S
O217        C219   1.267       .  A
O217       Mn222   2.064       .  S
C218        O236   1.283       .  A
C218        C267   1.569       .  S
C219        O232   1.256       .  A
C219        C284   1.433       .  S
Mn220       O970   2.235   1_455  S
Mn220      O1382   2.244   1_445  S
Mn220       O389   2.189   1_546  S
Mn220      O1166   2.192   1_446  S
O221       Mn988   1.930       .  S
Mn222       O966   1.981   1_455  S
Mn222      O1004   1.997   1_455  S
C223        C357   1.435       .  S
Mn224       O231   2.004   1_655  S
Mn224       O985   1.930       .  S
Mn224       O802   1.903       .  S
C225        O231   1.251       .  A
C225        O241   1.262       .  A
C225        C274   1.420       .  S
O226        C228   1.221       .  S
O227       Mn596   2.093       .  S
C228        C254   1.537       .  S
O229       Mn797   1.903   1_556  S
O230       Mn233   2.055       .  S
O232       Mn598   2.041       .  S
Mn233       O240   1.954       .  S
O234       Mn969   2.203       .  S
C235        C314   1.551       .  S
O236      Mn1366   2.244       .  S
O237        C242   1.277       .  A
O237      Mn1351   2.189       .  S
Mn238       O241   2.052       .  S
O240       Mn986   1.997       .  S
O240        C242   1.231       .  S
C242        C327   1.545       .  S
C243        C244   1.409       .  A
C243        C248   1.428       .  A
C243        H250   1.084       .  S
C244        C245   1.437       .  A
C245        C246   1.421       .  A
C245      Br1016   1.918   1_556  S
C246        C247   1.418       .  A
C246        H251   1.079       .  S
C247        C248   1.439       .  A
C248       Br249   1.925       .  S
Br252      C1009   1.918   1_554  S
C253        C254   1.406       .  A
C253        C258   1.428       .  A
C253        H260   1.081       .  S
C254        C255   1.422       .  A
C255        C256   1.413       .  A
C255       Br262   1.922       .  S
C256        C257   1.422       .  A
C256        H261   1.080       .  S
C257        C258   1.443       .  A
C258       Br259   1.915       .  S
C263        C264   1.437       .  A
C263        C268   1.444       .  A
C263        H270   1.075       .  S
C264        C265   1.425       .  A
C265        C266   1.428       .  A
C265       Br272   1.906       .  S
C266        C267   1.416       .  A
C266        H271   1.082       .  S
C267        C268   1.422       .  A
C268       Br269   1.909       .  S
C273        C274   1.398       .  A
C273        C278   1.394       .  A
C273        H280   1.084       .  S
C274        C275   1.383       .  A
C275        C276   1.366       .  A
C275       Br282   1.929       .  S
C276        C277   1.422       .  A
C276        H281   1.074       .  S
C277        C278   1.418       .  A
C278       Br279   1.930       .  S
C283        C284   1.379       .  A
C283        C288   1.375       .  A
C283        H290   1.068       .  S
C284        C285   1.388       .  A
C285        C286   1.381       .  A
C285       Br292   1.910       .  S
C286        C287   1.429       .  A
C286        H291   1.080       .  S
C287        C288   1.429       .  A
C288       Br289   1.928       .  S
C293        C294   1.389       .  A
C293        C298   1.393       .  A
C293        H300   1.085       .  S
C294        C295   1.404       .  A
C295        C296   1.389       .  A
C295       Br302   1.898       .  S
C296        C297   1.401       .  A
C296        H301   1.068       .  S
C297        C298   1.435       .  A
C298       Br299   1.885       .  S
C303        C304   1.435       .  A
C303        C308   1.415       .  A
C303        H310   1.073       .  S
C304        C305   1.460       .  A
C305        C306   1.429       .  A
C305       Br312   1.911       .  S
C306        C307   1.394       .  A
C306        H311   1.077       .  S
C307        C308   1.409       .  A
C308       Br309   1.909       .  S
C313        C314   1.418       .  A
C313        C318   1.419       .  A
C313        H320   1.081       .  S
C314        C315   1.417       .  A
C315        C316   1.432       .  A
C315       Br704   1.912       .  S
C316        C317   1.435       .  A
C316        H321   1.080       .  S
C317        C318   1.435       .  A
C318       Br319   1.919       .  S
Br322       C697   1.912       .  S
C323        C324   1.432       .  A
C323        C328   1.438       .  A
C323        H330   1.059       .  S
C324        C325   1.426       .  A
C325        C326   1.425       .  A
C325       Br332   1.935       .  S
C326        C327   1.413       .  A
C326        H331   1.076       .  S
C327        C328   1.422       .  A
C328       Br329   1.901       .  S
C333        C334   1.416       .  A
C333        C338   1.430       .  A
C333        H340   1.079       .  S
C334        C335   1.426       .  A
C335        C336   1.416       .  A
C335       Br342   1.919       .  S
C336        C337   1.412       .  A
C336        H341   1.068       .  S
C337        C338   1.452       .  A
C338       Br339   1.920       .  S
C343        C344   1.408       .  A
C343        C348   1.401       .  A
C343        H350   1.082       .  S
C344        C345   1.418       .  A
C345        C346   1.375       .  A
C345       Br352   1.894       .  S
C346        C347   1.379       .  A
C346        H351   1.085       .  S
C347        C348   1.407       .  A
C348       Br349   1.911       .  S
C353        C354   1.408       .  A
C353        C358   1.365       .  A
C353        H360   1.076       .  S
C354        C355   1.450       .  A
C355        C356   1.399       .  A
C355       Br362   1.930       .  S
C356        C357   1.390       .  A
C356        H361   1.082       .  S
C357        C358   1.377       .  A
C363        C364   1.404       .  A
C363        C368   1.413       .  A
C363        H370   1.081       .  S
C364        C365   1.401       .  A
C365        C366   1.380       .  A
C365       Br754   1.862       .  S
C366        C367   1.400       .  A
C366        H371   1.063       .  S
C367        C368   1.427       .  A
C368       Br369   1.913       .  S
Br372       C747   1.862       .  S
C373        C374   1.400       .  A
C373        C378   1.371       .  A
C373        H380   1.071       .  S
C374        C375   1.403       .  A
C375        C376   1.386       .  A
C375       Br382   1.910       .  S
C376        C377   1.415       .  A
C376        H381   1.077       .  S
C377        C378   1.426       .  A
C378       Br379   1.949       .  S
C383        C535   1.560       .  S
C383        C545   1.557       .  S
C383        C558   1.592       .  S
C383        C565   1.515       .  S
C384        C495   1.659       .  S
C384        C508   1.623       .  S
C384        C515   1.635       .  S
C384        C528   1.636       .  S
C385        C468   1.547       .  S
C385        C478   1.550       .  S
C385        C488   1.584       .  S
C385        C568   1.546       .  S
C386        C438   1.628       .  S
C386        C448   1.614       .  S
C386        C455   1.644       .  S
C386        C525   1.614       .  S
O387        C414   1.278       .  A
O387       Mn604   2.104       .  S
C388        O421   1.265       .  A
C388        O418   1.269       .  A
C388        C485   1.462       .  S
O389       Mn413   2.099       .  S
O390        C400   1.262       .  A
O390       Mn615   2.076       .  S
O391        C414   1.247   1_545  A
O392        C419   1.279       .  A
O392       Mn411   2.204       .  S
O393       Mn424   1.947   1_556  S
O393      Mn1177   1.981   1_556  S
O393        C600   1.224       .  S
C394        O397   1.277       .  A
C394        C435   1.556       .  S
C394        O420   1.208       .  S
O395       Mn415   2.133   1_455  S
O395       Mn396   2.185       .  S
O395       Mn429   2.109       .  S
O395       Mn602   2.190   1_554  S
Mn396      O1189   2.203   1_455  S
Mn396       O401   2.237       .  S
Mn396       O810   2.189   1_455  S
Mn396       O784   2.192   1_455  S
O397      Mn1175   2.235       .  S
O398        C400   1.272       .  A
C399        O425   1.275       .  A
C399        C498   1.538       .  S
C399        O412   1.215       .  S
C400        C555   1.480       .  S
O401        C426   1.272       .  A
O402       Mn778   2.192   1_565  S
O402       Mn424   2.178       .  S
O402       Mn984   2.192   1_564  S
O403       Mn407   1.895       .  S
O403       Mn429   1.924       .  S
O403        C426   1.212       .  S
C404        O430   1.266       .  A
C404        O406   1.258       .  A
C404        C538   1.440       .  S
Mn405       O611   1.986   1_554  S
Mn405       O412   1.958       .  S
O406       Mn620   2.047       .  S
Mn407       O608   1.933   1_554  S
O408        C410   1.267       .  A
O408       Mn413   2.064       .  S
C409        O427   1.283       .  A
C409        C458   1.569       .  S
C409        O584   1.224       .  S
C410        O423   1.256       .  A
C410        C475   1.433       .  S
Mn411      O1161   2.235   1_455  S
Mn411       O809   2.244   1_455  S
Mn411       O586   2.190       .  S
Mn411       O975   2.192   1_455  S
O412      Mn1179   1.930       .  S
Mn413       O578   2.104   1_554  S
Mn413      O1157   1.981   1_454  S
Mn413      O1195   1.997   1_455  S
C414        C548   1.435       .  S
Mn415       O422   2.004   1_655  S
Mn415       O621   2.081   1_654  S
Mn415      O1176   1.930       .  S
Mn415      O1375   1.903   1_554  S
C416        O422   1.251       .  A
C416        O432   1.262       .  A
C416        C465   1.420       .  S
O417       Mn598   1.933       .  S
O417       Mn620   1.946       .  S
O417        C419   1.221       .  S
C419        C445   1.537       .  S
O420       Mn596   1.986       .  S
O420      Mn1370   1.903       .  S
O421       Mn424   2.055       .  S
Mn424       O581   2.076   1_554  S
Mn424       O431   1.954       .  S
O425      Mn1160   2.203       .  S
C426        C505   1.551       .  S
O427       Mn793   2.244   1_565  S
O428        C433   1.277       .  A
O428       Mn778   2.189   1_565  S
Mn429       O597   2.047   1_554  S
Mn429       O432   2.052       .  S
Mn429       O608   1.946   1_554  S
O430       Mn606   2.081   1_455  S
O431      Mn1177   1.997       .  S
O431        C433   1.231       .  S
C433        C518   1.545       .  S
C434        C435   1.409       .  A
C434        C439   1.428       .  A
C434        H441   1.084       .  S
C435        C436   1.437       .  A
C436        C437   1.421       .  A
C436      Br1207   1.918       .  S
C437        C438   1.418       .  A
C437        H442   1.079       .  S
C438        C439   1.439       .  A
C439       Br440   1.925       .  S
Br443      C1200   1.918       .  S
C444        C445   1.406       .  A
C444        C449   1.428       .  A
C444        H451   1.081       .  S
C445        C446   1.422       .  A
C446        C447   1.413       .  A
C446       Br453   1.923       .  S
C447        C448   1.422       .  A
C447        H452   1.080       .  S
C448        C449   1.443       .  A
C449       Br450   1.915       .  S
C454        C455   1.437       .  A
C454        C459   1.444       .  A
C454        H461   1.075       .  S
C455        C456   1.425       .  A
C456        C457   1.428       .  A
C456       Br463   1.906       .  S
C457        C458   1.416       .  A
C457        H462   1.082       .  S
C458        C459   1.422       .  A
C459       Br460   1.909       .  S
C464        C465   1.398       .  A
C464        C469   1.394       .  A
C464        H471   1.084       .  S
C465        C466   1.383       .  A
C466        C467   1.366       .  A
C466       Br473   1.929       .  S
C467        C468   1.422       .  A
C467        H472   1.074       .  S
C468        C469   1.418       .  A
C469       Br470   1.930       .  S
C474        C475   1.379       .  A
C474        C479   1.375       .  A
C474        H481   1.068       .  S
C475        C476   1.388       .  A
C476        C477   1.381       .  A
C476       Br483   1.910       .  S
C477        C478   1.429       .  A
C477        H482   1.080       .  S
C478        C479   1.429       .  A
C479       Br480   1.928       .  S
C484        C485   1.389       .  A
C484        C489   1.393       .  A
C484        H491   1.085       .  S
C485        C486   1.404       .  A
C486        C487   1.389       .  A
C486       Br493   1.898       .  S
C487        C488   1.401       .  A
C487        H492   1.068       .  S
C488        C489   1.435       .  A
C489       Br490   1.885       .  S
C494        C495   1.435       .  A
C494        C499   1.415       .  A
C494        H501   1.073       .  S
C495        C496   1.460       .  A
C496        C497   1.429       .  A
C496       Br503   1.911       .  S
C497        C498   1.394       .  A
C497        H502   1.077       .  S
C498        C499   1.409       .  A
C499       Br500   1.909       .  S
C504        C505   1.418       .  A
C504        C509   1.419       .  A
C504        H511   1.081       .  S
C505        C506   1.417       .  A
C506        C507   1.432       .  A
C507        C508   1.435       .  A
C507        H512   1.080       .  S
C508        C509   1.435       .  A
C509       Br510   1.919       .  S
C514        C515   1.432       .  A
C514        C519   1.438       .  A
C514        H521   1.059       .  S
C515        C516   1.426       .  A
C516        C517   1.425       .  A
C516       Br523   1.935       .  S
C517        C518   1.413       .  A
C517        H522   1.076       .  S
C518        C519   1.422       .  A
C519       Br520   1.901       .  S
C524        C525   1.416       .  A
C524        C529   1.430       .  A
C524        H531   1.079       .  S
C525        C526   1.426       .  A
C526        C527   1.416       .  A
C526       Br533   1.919       .  S
C527        C528   1.412       .  A
C527        H532   1.068       .  S
C528        C529   1.452       .  A
C529       Br530   1.920       .  S
C534        C535   1.408       .  A
C534        C539   1.401       .  A
C534        H541   1.082       .  S
C535        C536   1.418       .  A
C536        C537   1.375       .  A
C536       Br543   1.895       .  S
C537        C538   1.379       .  A
C537        H542   1.085       .  S
C538        C539   1.407       .  A
C539       Br540   1.911       .  S
C544        C545   1.408       .  A
C544        C549   1.365       .  A
C544        H551   1.076       .  S
C545        C546   1.450       .  A
C546        C547   1.399       .  A
C546       Br553   1.930       .  S
C547        C548   1.390       .  A
C547        H552   1.082       .  S
C548        C549   1.377       .  A
C549       Br741   1.898       .  S
Br550       C740   1.898   1_554  S
C554        C555   1.404       .  A
C554        C559   1.413       .  A
C554        H561   1.081       .  S
C555        C556   1.401       .  A
C556        C557   1.379       .  A
C557        C558   1.399       .  A
C557        H562   1.067       .  S
C558        C559   1.427       .  A
C559       Br560   1.913       .  S
C564        C565   1.400       .  A
C564        C569   1.371       .  A
C564        H571   1.074       .  S
C565        C566   1.403       .  A
C566        C567   1.386       .  A
C566       Br573   1.910       .  S
C567        C568   1.415       .  A
C567        H572   1.078       .  S
C568        C569   1.426       .  A
C569       Br570   1.949       .  S
C574        C726   1.560       .  S
C574        C736   1.557       .  S
C574        C749   1.592       .  S
C574        C756   1.515       .  S
C575        C686   1.659       .  S
C575        C699   1.623       .  S
C575        C706   1.635       .  S
C575        C719   1.636       .  S
C576        C659   1.547       .  S
C576        C669   1.550       .  S
C576        C679   1.584       .  S
C576        C759   1.546       .  S
C577        C629   1.628       .  S
C577        C639   1.614       .  S
C577        C646   1.644       .  S
C577        C716   1.614       .  S
O578        C605   1.278       .  A
C579        O612   1.265       .  A
C579        O609   1.269       .  A
C579        C676   1.462       .  S
O580       Mn604   2.099       .  S
O581        C591   1.262       .  A
O582        C605   1.247   1_545  A
O583        C610   1.279       .  A
O583       Mn602   2.204       .  S
O584       Mn615   1.947       .  S
O584      Mn1368   1.981       .  S
C585        O588   1.277       .  A
C585        C626   1.556       .  S
C585        O611   1.208       .  S
O586       Mn606   2.133   1_455  S
O586       Mn587   2.185       .  S
O586       Mn620   2.109       .  S
Mn587      O1380   2.203   1_455  S
Mn587       O592   2.237       .  S
Mn587      O1001   2.189   1_455  S
Mn587       O975   2.192   1_455  S
O588      Mn1366   2.235       .  S
O589        C591   1.272       .  A
C590        O616   1.275       .  A
C590        C689   1.538       .  S
C590        O603   1.215       .  S
C591        C746   1.480       .  S
O592        C617   1.272       .  A
O593       Mn969   2.192   1_565  S
O593       Mn615   2.178       .  S
O593       Mn793   2.192   1_565  S
O594       Mn598   1.895       .  S
O594       Mn620   1.925       .  S
O594        C617   1.212       .  S
C595        O621   1.266       .  A
C595        O597   1.258       .  A
C595        C729   1.440       .  S
Mn596       O603   1.958       .  S
O599        C601   1.267       .  A
O599       Mn604   2.064       .  S
C600        O618   1.283       .  A
C600        C649   1.569       .  S
C601        O614   1.256       .  A
C601        C666   1.433       .  S
Mn602      O1352   2.235   1_455  S
Mn602      O1000   2.244   1_455  S
Mn602       O784   2.192   1_456  S
O603      Mn1370   1.930       .  S
Mn604      O1348   1.981   1_455  S
Mn604      O1386   1.997   1_455  S
C605        C739   1.435       .  S
Mn606       O613   2.004   1_655  S
Mn606      O1367   1.930       .  S
Mn606      O1184   1.903       .  S
C607        O613   1.251       .  A
C607        O623   1.262       .  A
C607        C656   1.420       .  S
O608        C610   1.221       .  S
C610        C636   1.537       .  S
O611      Mn1179   1.903   1_556  S
O612       Mn615   2.055       .  S
Mn615       O622   1.954       .  S
O616      Mn1351   2.203       .  S
C617        C696   1.551       .  S
O618       Mn984   2.244   1_565  S
O619        C624   1.277       .  A
O619       Mn969   2.189   1_565  S
Mn620       O623   2.052       .  S
O622      Mn1368   1.997       .  S
O622        C624   1.231       .  S
C624        C709   1.545       .  S
C625        C626   1.409       .  A
C625        C630   1.428       .  A
C625        H632   1.084       .  S
C626        C627   1.437       .  A
C627        C628   1.421       .  A
C627      Br1398   1.918   1_556  S
C628        C629   1.418       .  A
C628        H633   1.079       .  S
C629        C630   1.439       .  A
C630       Br631   1.925       .  S
Br634      C1391   1.918   1_554  S
C635        C636   1.406       .  A
C635        C640   1.428       .  A
C635        H642   1.081       .  S
C636        C637   1.422       .  A
C637        C638   1.413       .  A
C637       Br644   1.922       .  S
C638        C639   1.422       .  A
C638        H643   1.080       .  S
C639        C640   1.443       .  A
C640       Br641   1.915       .  S
C645        C646   1.437       .  A
C645        C650   1.444       .  A
C645        H652   1.075       .  S
C646        C647   1.425       .  A
C647        C648   1.428       .  A
C647       Br654   1.906       .  S
C648        C649   1.416       .  A
C648        H653   1.082       .  S
C649        C650   1.422       .  A
C650       Br651   1.909       .  S
C655        C656   1.398       .  A
C655        C660   1.394       .  A
C655        H662   1.084       .  S
C656        C657   1.383       .  A
C657        C658   1.366       .  A
C657       Br664   1.929       .  S
C658        C659   1.422       .  A
C658        H663   1.074       .  S
C659        C660   1.418       .  A
C660       Br661   1.930       .  S
C665        C666   1.379       .  A
C665        C670   1.375       .  A
C665        H672   1.068       .  S
C666        C667   1.388       .  A
C667        C668   1.381       .  A
C667       Br674   1.910       .  S
C668        C669   1.429       .  A
C668        H673   1.080       .  S
C669        C670   1.429       .  A
C670       Br671   1.928       .  S
C675        C676   1.389       .  A
C675        C680   1.393       .  A
C675        H682   1.085       .  S
C676        C677   1.404       .  A
C677        C678   1.389       .  A
C677       Br684   1.898       .  S
C678        C679   1.401       .  A
C678        H683   1.068       .  S
C679        C680   1.435       .  A
C680       Br681   1.885       .  S
C685        C686   1.435       .  A
C685        C690   1.415       .  A
C685        H692   1.073       .  S
C686        C687   1.460       .  A
C687        C688   1.429       .  A
C687       Br694   1.911       .  S
C688        C689   1.394       .  A
C688        H693   1.077       .  S
C689        C690   1.409       .  A
C690       Br691   1.909       .  S
C695        C696   1.418       .  A
C695        C700   1.419       .  A
C695        H702   1.081       .  S
C696        C697   1.417       .  A
C697        C698   1.432       .  A
C698        C699   1.435       .  A
C698        H703   1.080       .  S
C699        C700   1.435       .  A
C700       Br701   1.919       .  S
C705        C706   1.432       .  A
C705        C710   1.438       .  A
C705        H712   1.059       .  S
C706        C707   1.426       .  A
C707        C708   1.425       .  A
C707       Br714   1.935       .  S
C708        C709   1.413       .  A
C708        H713   1.076       .  S
C709        C710   1.422       .  A
C710       Br711   1.901       .  S
C715        C716   1.416       .  A
C715        C720   1.430       .  A
C715        H722   1.079       .  S
C716        C717   1.426       .  A
C717        C718   1.416       .  A
C717       Br724   1.919       .  S
C718        C719   1.412       .  A
C718        H723   1.068       .  S
C719        C720   1.452       .  A
C720       Br721   1.920       .  S
C725        C726   1.408       .  A
C725        C730   1.401       .  A
C725        H732   1.082       .  S
C726        C727   1.418       .  A
C727        C728   1.375       .  A
C727       Br734   1.894       .  S
C728        C729   1.379       .  A
C728        H733   1.085       .  S
C729        C730   1.407       .  A
C730       Br731   1.911       .  S
C735        C736   1.408       .  A
C735        C740   1.365       .  A
C735        H742   1.076       .  S
C736        C737   1.450       .  A
C737        C738   1.399       .  A
C737       Br744   1.930       .  S
C738        C739   1.390       .  A
C738        H743   1.082       .  S
C739        C740   1.377       .  A
C745        C746   1.404       .  A
C745        C750   1.413       .  A
C745        H752   1.081       .  S
C746        C747   1.401       .  A
C747        C748   1.380       .  A
C748        C749   1.400       .  A
C748        H753   1.063       .  S
C749        C750   1.427       .  A
C750       Br751   1.913       .  S
C755        C756   1.400       .  A
C755        C760   1.371       .  A
C755        H762   1.071       .  S
C756        C757   1.403       .  A
C757        C758   1.386       .  A
C757       Br764   1.910       .  S
C758        C759   1.415       .  A
C758        H763   1.077       .  S
C759        C760   1.426       .  A
C760       Br761   1.949       .  S
C765        C917   1.560       .  S
C765        C927   1.557       .  S
C765        C940   1.592       .  S
C765        C947   1.515       .  S
C766        C877   1.659       .  S
C766        C890   1.623       .  S
C766        C897   1.635       .  S
C766        C910   1.636       .  S
C767        C850   1.547       .  S
C767        C860   1.550       .  S
C767        C870   1.584       .  S
C767        C950   1.546       .  S
C768        C820   1.628       .  S
C768        C830   1.614       .  S
C768        C837   1.644       .  S
C768        C907   1.614       .  S
O769        C796   1.278       .  A
O769       Mn986   2.104       .  S
C770        O803   1.265       .  A
C770        O800   1.269       .  A
C770        C867   1.462       .  S
O771      Mn1160   2.185       .  S
O771      Mn1171   2.172       .  S
O771      Mn1366   2.189   1_554  S
O771       Mn795   2.099       .  S
O772        C782   1.262       .  A
O772       Mn997   2.076       .  S
O773        C796   1.247       .  A
O773      Mn1362   1.997       .  S
O774        C801   1.279       .  A
O774       Mn793   2.204       .  S
O775       Mn806   1.947   1_556  S
O775        C982   1.224       .  S
C776        O779   1.277       .  A
C776        C817   1.556       .  S
C776        O802   1.208       .  S
O777       Mn797   2.133       .  S
O777       Mn778   2.185       .  S
O777       Mn811   2.109       .  S
O777       Mn984   2.190   1_554  S
Mn778       O783   2.237       .  S
Mn778      O1153   2.185   1_545  S
O780        C782   1.272       .  A
O780      Mn1360   2.090       .  S
C781        O807   1.275       .  A
C781        C880   1.538       .  S
C781        O794   1.215       .  S
C782        C937   1.480       .  S
O783        C808   1.272       .  A
O784      Mn1169   2.105       .  S
O784       Mn806   2.178       .  S
O785       Mn789   1.895       .  S
O785       Mn811   1.924       .  S
O785        C808   1.212       .  S
C786        O812   1.266       .  A
C786        O788   1.258       .  A
C786        C920   1.440       .  S
Mn787      O1353   2.090   1_554  S
Mn787      O1182   2.093       .  S
Mn787      O1166   2.105       .  S
Mn787       O993   1.986   1_564  S
Mn787       O794   1.958   1_565  S
O788      Mn1002   2.047       .  S
Mn789      O1346   1.997   1_554  S
Mn789      O1187   2.041   1_545  S
Mn789      O1153   2.172   1_545  S
Mn789       O990   1.933   1_554  S
O790        C792   1.267       .  A
O790       Mn795   2.064       .  S
C791        O809   1.283       .  A
C791        C840   1.569       .  S
C791        O966   1.224       .  S
C792        O805   1.256       .  A
C792        C857   1.433       .  S
Mn793      O1344   2.189   1_545  S
Mn793       O968   2.190       .  S
Mn795       O960   2.104   1_554  S
C796        C930   1.435       .  S
Mn797       O804   2.004       .  S
Mn797      O1003   2.081   1_554  S
C798        O804   1.251       .  A
C798        O814   1.262       .  A
C798        C847   1.420       .  S
O799       Mn980   1.933       .  S
O799      Mn1002   1.946       .  S
O799        C801   1.221       .  S
O800      Mn1169   2.093       .  S
C801        C827   1.537       .  S
O802       Mn978   1.986   1_545  S
O803       Mn806   2.055       .  S
O805      Mn1171   2.041       .  S
Mn806       O963   2.076   1_554  S
Mn806       O813   1.954       .  S
C808        C887   1.551       .  S
O810        C815   1.277       .  A
Mn811       O979   2.047   1_554  S
Mn811       O814   2.052       .  S
Mn811       O990   1.946   1_554  S
O812       Mn988   2.081       .  S
O813        C815   1.231       .  S
C815        C900   1.545       .  S
C816        C817   1.409       .  A
C816        C821   1.428       .  A
C816        H823   1.084       .  S
C817        C818   1.437       .  A
C818        C819   1.421       .  A
C819        C820   1.418       .  A
C819        H824   1.079       .  S
C820        C821   1.439       .  A
C821       Br822   1.925       .  S
C826        C827   1.406       .  A
C826        C831   1.428       .  A
C826        H833   1.081       .  S
C827        C828   1.422       .  A
C828        C829   1.413       .  A
C828       Br835   1.923       .  S
C829        C830   1.422       .  A
C829        H834   1.080       .  S
C830        C831   1.443       .  A
C831       Br832   1.915       .  S
C836        C837   1.437       .  A
C836        C841   1.444       .  A
C836        H843   1.075       .  S
C837        C838   1.425       .  A
C838        C839   1.428       .  A
C838       Br845   1.906       .  S
C839        C840   1.416       .  A
C839        H844   1.082       .  S
C840        C841   1.422       .  A
C841       Br842   1.909       .  S
C846        C847   1.398       .  A
C846        C851   1.394       .  A
C846        H853   1.084       .  S
C847        C848   1.383       .  A
C848        C849   1.366       .  A
C848       Br855   1.929       .  S
C849        C850   1.422       .  A
C849        H854   1.074       .  S
C850        C851   1.418       .  A
C851       Br852   1.930       .  S
C856        C857   1.379       .  A
C856        C861   1.375       .  A
C856        H863   1.068       .  S
C857        C858   1.388       .  A
C858        C859   1.381       .  A
C858       Br865   1.910       .  S
C859        C860   1.429       .  A
C859        H864   1.080       .  S
C860        C861   1.429       .  A
C861       Br862   1.928       .  S
C866        C867   1.389       .  A
C866        C871   1.393       .  A
C866        H873   1.085       .  S
C867        C868   1.404       .  A
C868        C869   1.389       .  A
C868       Br875   1.898       .  S
C869        C870   1.401       .  A
C869        H874   1.068       .  S
C870        C871   1.435       .  A
C871       Br872   1.885       .  S
C876        C877   1.435       .  A
C876        C881   1.415       .  A
C876        H883   1.073       .  S
C877        C878   1.460       .  A
C878        C879   1.429       .  A
C878       Br885   1.911       .  S
C879        C880   1.394       .  A
C879        H884   1.077       .  S
C880        C881   1.409       .  A
C881       Br882   1.909       .  S
C886        C887   1.418       .  A
C886        C891   1.419       .  A
C886        H893   1.081       .  S
C887        C888   1.417       .  A
C888        C889   1.432       .  A
C888      Br1277   1.912       .  S
C889        C890   1.435       .  A
C889        H894   1.080       .  S
C890        C891   1.435       .  A
C891       Br892   1.919       .  S
Br895      C1270   1.912       .  S
C896        C897   1.432       .  A
C896        C901   1.438       .  A
C896        H903   1.059       .  S
C897        C898   1.426       .  A
C898        C899   1.425       .  A
C898       Br905   1.935       .  S
C899        C900   1.413       .  A
C899        H904   1.076       .  S
C900        C901   1.422       .  A
C901       Br902   1.901       .  S
C906        C907   1.416       .  A
C906        C911   1.430       .  A
C906        H913   1.079       .  S
C907        C908   1.426       .  A
C908        C909   1.416       .  A
C908       Br915   1.919       .  S
C909        C910   1.412       .  A
C909        H914   1.068       .  S
C910        C911   1.452       .  A
C911       Br912   1.920       .  S
C916        C917   1.408       .  A
C916        C921   1.401       .  A
C916        H923   1.082       .  S
C917        C918   1.418       .  A
C918        C919   1.375       .  A
C918       Br925   1.895       .  S
C919        C920   1.379       .  A
C919        H924   1.085       .  S
C920        C921   1.407       .  A
C921       Br922   1.911       .  S
C926        C927   1.408       .  A
C926        C931   1.365       .  A
C926        H933   1.076       .  S
C927        C928   1.450       .  A
C928        C929   1.399       .  A
C928       Br935   1.930       .  S
C929        C930   1.390       .  A
C929        H934   1.082       .  S
C930        C931   1.377       .  A
C931      Br1123   1.898       .  S
Br932      C1122   1.898   1_554  S
C936        C937   1.404       .  A
C936        C941   1.413       .  A
C936        H943   1.081       .  S
C937        C938   1.401       .  A
C938        C939   1.379       .  A
C938      Br1327   1.862       .  S
C939        C940   1.399       .  A
C939        H944   1.067       .  S
C940        C941   1.427       .  A
C941       Br942   1.913       .  S
Br945      C1320   1.862       .  S
C946        C947   1.400       .  A
C946        C951   1.371       .  A
C946        H953   1.074       .  S
C947        C948   1.403       .  A
C948        C949   1.386       .  A
C948       Br955   1.910       .  S
C949        C950   1.415       .  A
C949        H954   1.078       .  S
C950        C951   1.426       .  A
C951       Br952   1.949       .  S
C956       C1108   1.560       .  S
C956       C1118   1.557       .  S
C956       C1131   1.592       .  S
C956       C1138   1.515       .  S
C957       C1068   1.659       .  S
C957       C1081   1.623       .  S
C957       C1088   1.635       .  S
C957       C1101   1.636       .  S
C958       C1041   1.547       .  S
C958       C1051   1.550       .  S
C958       C1061   1.584       .  S
C958       C1141   1.546       .  S
C959       C1011   1.628       .  S
C959       C1021   1.614       .  S
C959       C1028   1.644       .  S
C959       C1098   1.614       .  S
O960        C987   1.278       .  A
C961        O994   1.265       .  A
C961        O991   1.269       .  A
C961       C1058   1.462       .  S
O962      Mn1351   2.185       .  S
O962      Mn1362   2.172       .  S
O962      Mn1175   2.189       .  S
O962       Mn986   2.099       .  S
O963        C973   1.262       .  A
O964        C987   1.247       .  A
O964      Mn1171   1.997   1_556  S
O965        C992   1.279       .  A
O965       Mn984   2.204       .  S
O966       Mn997   1.947       .  S
C967        O970   1.277       .  A
C967       C1008   1.556       .  S
C967        O993   1.208       .  S
O968       Mn988   2.133       .  S
O968       Mn969   2.185       .  S
O968      Mn1002   2.109       .  S
Mn969       O974   2.237       .  S
Mn969      O1344   2.185   1_545  S
O971        C973   1.272       .  A
O971      Mn1169   2.090   1_556  S
C972        O998   1.275       .  A
C972       C1071   1.538       .  S
C972        O985   1.215       .  S
C973       C1128   1.480       .  S
O974        C999   1.272       .  A
O975      Mn1360   2.105       .  S
O975       Mn997   2.178       .  S
O976       Mn980   1.895       .  S
O976      Mn1002   1.925       .  S
O976        C999   1.212       .  S
C977       O1003   1.266       .  A
C977        O979   1.258       .  A
C977       C1111   1.440       .  S
Mn978      O1162   2.090       .  S
Mn978      O1373   2.093       .  S
Mn978      O1357   2.105       .  S
Mn978       O985   1.958   1_565  S
Mn980      O1155   1.997       .  S
Mn980      O1378   2.041   1_545  S
Mn980      O1344   2.172   1_545  S
O981        C983   1.267       .  A
O981       Mn986   2.064       .  S
C982       O1000   1.283       .  A
C982       C1031   1.569       .  S
C983        O996   1.256       .  A
C983       C1048   1.433       .  S
Mn984      O1153   2.189   1_546  S
C987       C1121   1.435       .  S
Mn988       O995   2.004       .  S
C989        O995   1.251       .  A
C989       O1005   1.262       .  A
C989       C1038   1.420       .  S
O990        C992   1.221       .  S
O991      Mn1360   2.093       .  S
C992       C1018   1.537       .  S
O994       Mn997   2.055       .  S
O996      Mn1362   2.041       .  S
Mn997      O1004   1.954       .  S
C999       C1078   1.551       .  S
O1001      C1006   1.277       .  A
Mn1002     O1005   2.052       .  S
O1004      C1006   1.231       .  S
C1006      C1091   1.545       .  S
C1007      C1008   1.409       .  A
C1007      C1012   1.428       .  A
C1007      H1014   1.084       .  S
C1008      C1009   1.437       .  A
C1009      C1010   1.421       .  A
C1010      C1011   1.418       .  A
C1010      H1015   1.079       .  S
C1011      C1012   1.439       .  A
C1012     Br1013   1.925       .  S
C1017      C1018   1.406       .  A
C1017      C1022   1.428       .  A
C1017      H1024   1.081       .  S
C1018      C1019   1.422       .  A
C1019      C1020   1.413       .  A
C1019     Br1026   1.922       .  S
C1020      C1021   1.422       .  A
C1020      H1025   1.080       .  S
C1021      C1022   1.443       .  A
C1022     Br1023   1.915       .  S
C1027      C1028   1.437       .  A
C1027      C1032   1.444       .  A
C1027      H1034   1.075       .  S
C1028      C1029   1.425       .  A
C1029      C1030   1.428       .  A
C1029     Br1036   1.906       .  S
C1030      C1031   1.416       .  A
C1030      H1035   1.082       .  S
C1031      C1032   1.422       .  A
C1032     Br1033   1.909       .  S
C1037      C1038   1.398       .  A
C1037      C1042   1.394       .  A
C1037      H1044   1.084       .  S
C1038      C1039   1.383       .  A
C1039      C1040   1.366       .  A
C1039     Br1046   1.929       .  S
C1040      C1041   1.422       .  A
C1040      H1045   1.074       .  S
C1041      C1042   1.418       .  A
C1042     Br1043   1.930       .  S
C1047      C1048   1.379       .  A
C1047      C1052   1.375       .  A
C1047      H1054   1.068       .  S
C1048      C1049   1.388       .  A
C1049      C1050   1.381       .  A
C1049     Br1056   1.910       .  S
C1050      C1051   1.429       .  A
C1050      H1055   1.080       .  S
C1051      C1052   1.429       .  A
C1052     Br1053   1.928       .  S
C1057      C1058   1.389       .  A
C1057      C1062   1.393       .  A
C1057      H1064   1.085       .  S
C1058      C1059   1.404       .  A
C1059      C1060   1.389       .  A
C1059     Br1066   1.898       .  S
C1060      C1061   1.401       .  A
C1060      H1065   1.068       .  S
C1061      C1062   1.435       .  A
C1062     Br1063   1.885       .  S
C1067      C1068   1.435       .  A
C1067      C1072   1.415       .  A
C1067      H1074   1.073       .  S
C1068      C1069   1.460       .  A
C1069      C1070   1.429       .  A
C1069     Br1076   1.911       .  S
C1070      C1071   1.394       .  A
C1070      H1075   1.077       .  S
C1071      C1072   1.409       .  A
C1072     Br1073   1.909       .  S
C1077      C1078   1.418       .  A
C1077      C1082   1.419       .  A
C1077      H1084   1.081       .  S
C1078      C1079   1.417       .  A
C1079      C1080   1.432       .  A
C1079     Br1468   1.912       .  S
C1080      C1081   1.435       .  A
C1080      H1085   1.080       .  S
C1081      C1082   1.435       .  A
C1082     Br1083   1.919       .  S
Br1086     C1461   1.912       .  S
C1087      C1088   1.432       .  A
C1087      C1092   1.438       .  A
C1087      H1094   1.059       .  S
C1088      C1089   1.426       .  A
C1089      C1090   1.425       .  A
C1089     Br1096   1.935       .  S
C1090      C1091   1.413       .  A
C1090      H1095   1.076       .  S
C1091      C1092   1.422       .  A
C1092     Br1093   1.901       .  S
C1097      C1098   1.416       .  A
C1097      C1102   1.430       .  A
C1097      H1104   1.079       .  S
C1098      C1099   1.426       .  A
C1099      C1100   1.416       .  A
C1099     Br1106   1.919       .  S
C1100      C1101   1.412       .  A
C1100      H1105   1.068       .  S
C1101      C1102   1.452       .  A
C1102     Br1103   1.920       .  S
C1107      C1108   1.408       .  A
C1107      C1112   1.401       .  A
C1107      H1114   1.082       .  S
C1108      C1109   1.418       .  A
C1109      C1110   1.375       .  A
C1109     Br1116   1.894       .  S
C1110      C1111   1.379       .  A
C1110      H1115   1.085       .  S
C1111      C1112   1.407       .  A
C1112     Br1113   1.911       .  S
C1117      C1118   1.408       .  A
C1117      C1122   1.365       .  A
C1117      H1124   1.076       .  S
C1118      C1119   1.450       .  A
C1119      C1120   1.399       .  A
C1119     Br1126   1.930       .  S
C1120      C1121   1.390       .  A
C1120      H1125   1.082       .  S
C1121      C1122   1.377       .  A
C1127      C1128   1.404       .  A
C1127      C1132   1.413       .  A
C1127      H1134   1.081       .  S
C1128      C1129   1.401       .  A
C1129      C1130   1.380       .  A
C1129     Br1518   1.862       .  S
C1130      C1131   1.400       .  A
C1130      H1135   1.063       .  S
C1131      C1132   1.427       .  A
C1132     Br1133   1.913       .  S
Br1136     C1511   1.862       .  S
C1137      C1138   1.400       .  A
C1137      C1142   1.371       .  A
C1137      H1144   1.071       .  S
C1138      C1139   1.403       .  A
C1139      C1140   1.386       .  A
C1139     Br1146   1.910       .  S
C1140      C1141   1.415       .  A
C1140      H1145   1.077       .  S
C1141      C1142   1.426       .  A
C1142     Br1143   1.949       .  S
C1147      C1299   1.560       .  S
C1147      C1309   1.557       .  S
C1147      C1322   1.592       .  S
C1147      C1329   1.515       .  S
C1148      C1259   1.659       .  S
C1148      C1272   1.623       .  S
C1148      C1279   1.635       .  S
C1148      C1292   1.636       .  S
C1149      C1232   1.547       .  S
C1149      C1242   1.550       .  S
C1149      C1252   1.584       .  S
C1149      C1332   1.546       .  S
C1150      C1202   1.628       .  S
C1150      C1212   1.614       .  S
C1150      C1219   1.644       .  S
C1150      C1289   1.614       .  S
O1151      C1178   1.278       .  A
O1151     Mn1368   2.104       .  S
C1152      O1185   1.265       .  A
C1152      O1182   1.269       .  A
C1152      C1249   1.462       .  S
O1153     Mn1177   2.099       .  S
O1154      C1164   1.262       .  A
O1154     Mn1379   2.076       .  S
O1155      C1178   1.247   1_545  A
O1156      C1183   1.279       .  A
O1156     Mn1175   2.204       .  S
O1157     Mn1188   1.947   1_556  S
O1157      C1364   1.224       .  S
C1158      O1161   1.277       .  A
C1158      C1199   1.556       .  S
C1158      O1184   1.208       .  S
O1159     Mn1179   2.133       .  S
O1159     Mn1160   2.185       .  S
O1159     Mn1193   2.109       .  S
O1159     Mn1366   2.190   1_554  S
Mn1160     O1165   2.237       .  S
O1162      C1164   1.272       .  A
C1163      O1189   1.275       .  A
C1163      C1262   1.538       .  S
C1163      O1176   1.215       .  S
C1164      C1319   1.480       .  S
O1165      C1190   1.272       .  A
O1166     Mn1188   2.178       .  S
O1167     Mn1171   1.895       .  S
O1167     Mn1193   1.924       .  S
O1167      C1190   1.212       .  S
C1168      O1194   1.266       .  A
C1168      O1170   1.258       .  A
C1168      C1302   1.440       .  S
Mn1169     O1375   1.986   1_554  S
Mn1169     O1176   1.958       .  S
O1170     Mn1384   2.047       .  S
Mn1171     O1372   1.933   1_554  S
O1172      C1174   1.267       .  A
O1172     Mn1177   2.064       .  S
C1173      O1191   1.283       .  A
C1173      C1222   1.569       .  S
C1173      O1348   1.224       .  S
C1174      O1187   1.256       .  A
C1174      C1239   1.433       .  S
Mn1175     O1350   2.190       .  S
Mn1177     O1342   2.104   1_554  S
C1178      C1312   1.435       .  S
Mn1179     O1186   2.004       .  S
Mn1179     O1385   2.081   1_554  S
C1180      O1186   1.251       .  A
C1180      O1196   1.262       .  A
C1180      C1229   1.420       .  S
O1181     Mn1362   1.933       .  S
O1181     Mn1384   1.946       .  S
O1181      C1183   1.221       .  S
C1183      C1209   1.537       .  S
O1184     Mn1360   1.986       .  S
O1185     Mn1188   2.055       .  S
Mn1188     O1345   2.076   1_554  S
Mn1188     O1195   1.954       .  S
C1190      C1269   1.551       .  S
O1192      C1197   1.277       .  A
Mn1193     O1361   2.047   1_554  S
Mn1193     O1196   2.052       .  S
Mn1193     O1372   1.946   1_554  S
O1194     Mn1370   2.081       .  S
O1195      C1197   1.231       .  S
C1197      C1282   1.545       .  S
C1198      C1199   1.409       .  A
C1198      C1203   1.428       .  A
C1198      H1205   1.084       .  S
C1199      C1200   1.437       .  A
C1200      C1201   1.421       .  A
C1201      C1202   1.418       .  A
C1201      H1206   1.079       .  S
C1202      C1203   1.439       .  A
C1203     Br1204   1.925       .  S
C1208      C1209   1.406       .  A
C1208      C1213   1.428       .  A
C1208      H1215   1.081       .  S
C1209      C1210   1.422       .  A
C1210      C1211   1.413       .  A
C1210     Br1217   1.923       .  S
C1211      C1212   1.422       .  A
C1211      H1216   1.080       .  S
C1212      C1213   1.443       .  A
C1213     Br1214   1.915       .  S
C1218      C1219   1.437       .  A
C1218      C1223   1.444       .  A
C1218      H1225   1.075       .  S
C1219      C1220   1.425       .  A
C1220      C1221   1.428       .  A
C1220     Br1227   1.906       .  S
C1221      C1222   1.416       .  A
C1221      H1226   1.082       .  S
C1222      C1223   1.422       .  A
C1223     Br1224   1.909       .  S
C1228      C1229   1.398       .  A
C1228      C1233   1.394       .  A
C1228      H1235   1.084       .  S
C1229      C1230   1.383       .  A
C1230      C1231   1.366       .  A
C1230     Br1237   1.929       .  S
C1231      C1232   1.422       .  A
C1231      H1236   1.074       .  S
C1232      C1233   1.418       .  A
C1233     Br1234   1.930       .  S
C1238      C1239   1.379       .  A
C1238      C1243   1.375       .  A
C1238      H1245   1.068       .  S
C1239      C1240   1.388       .  A
C1240      C1241   1.381       .  A
C1240     Br1247   1.910       .  S
C1241      C1242   1.429       .  A
C1241      H1246   1.080       .  S
C1242      C1243   1.429       .  A
C1243     Br1244   1.928       .  S
C1248      C1249   1.389       .  A
C1248      C1253   1.393       .  A
C1248      H1255   1.085       .  S
C1249      C1250   1.404       .  A
C1250      C1251   1.389       .  A
C1250     Br1257   1.898       .  S
C1251      C1252   1.401       .  A
C1251      H1256   1.068       .  S
C1252      C1253   1.435       .  A
C1253     Br1254   1.885       .  S
C1258      C1259   1.435       .  A
C1258      C1263   1.415       .  A
C1258      H1265   1.073       .  S
C1259      C1260   1.460       .  A
C1260      C1261   1.429       .  A
C1260     Br1267   1.911       .  S
C1261      C1262   1.394       .  A
C1261      H1266   1.077       .  S
C1262      C1263   1.409       .  A
C1263     Br1264   1.909       .  S
C1268      C1269   1.418       .  A
C1268      C1273   1.419       .  A
C1268      H1275   1.081       .  S
C1269      C1270   1.417       .  A
C1270      C1271   1.432       .  A
C1271      C1272   1.435       .  A
C1271      H1276   1.080       .  S
C1272      C1273   1.435       .  A
C1273     Br1274   1.919       .  S
C1278      C1279   1.432       .  A
C1278      C1283   1.438       .  A
C1278      H1285   1.059       .  S
C1279      C1280   1.426       .  A
C1280      C1281   1.425       .  A
C1280     Br1287   1.935       .  S
C1281      C1282   1.413       .  A
C1281      H1286   1.076       .  S
C1282      C1283   1.422       .  A
C1283     Br1284   1.901       .  S
C1288      C1289   1.416       .  A
C1288      C1293   1.430       .  A
C1288      H1295   1.079       .  S
C1289      C1290   1.426       .  A
C1290      C1291   1.416       .  A
C1290     Br1297   1.919       .  S
C1291      C1292   1.412       .  A
C1291      H1296   1.068       .  S
C1292      C1293   1.452       .  A
C1293     Br1294   1.920       .  S
C1298      C1299   1.408       .  A
C1298      C1303   1.401       .  A
C1298      H1305   1.082       .  S
C1299      C1300   1.418       .  A
C1300      C1301   1.375       .  A
C1300     Br1307   1.895       .  S
C1301      C1302   1.379       .  A
C1301      H1306   1.085       .  S
C1302      C1303   1.407       .  A
C1303     Br1304   1.911       .  S
C1308      C1309   1.408       .  A
C1308      C1313   1.365       .  A
C1308      H1315   1.076       .  S
C1309      C1310   1.450       .  A
C1310      C1311   1.399       .  A
C1310     Br1317   1.930       .  S
C1311      C1312   1.390       .  A
C1311      H1316   1.082       .  S
C1312      C1313   1.377       .  A
C1313     Br1505   1.898       .  S
Br1314     C1504   1.898   1_554  S
C1318      C1319   1.404       .  A
C1318      C1323   1.413       .  A
C1318      H1325   1.081       .  S
C1319      C1320   1.401       .  A
C1320      C1321   1.379       .  A
C1321      C1322   1.399       .  A
C1321      H1326   1.067       .  S
C1322      C1323   1.427       .  A
C1323     Br1324   1.913       .  S
C1328      C1329   1.400       .  A
C1328      C1333   1.371       .  A
C1328      H1335   1.074       .  S
C1329      C1330   1.403       .  A
C1330      C1331   1.386       .  A
C1330     Br1337   1.910       .  S
C1331      C1332   1.415       .  A
C1331      H1336   1.078       .  S
C1332      C1333   1.426       .  A
C1333     Br1334   1.949       .  S
C1338      C1490   1.560       .  S
C1338      C1500   1.557       .  S
C1338      C1513   1.592       .  S
C1338      C1520   1.515       .  S
C1339      C1450   1.659       .  S
C1339      C1463   1.623       .  S
C1339      C1470   1.635       .  S
C1339      C1483   1.636       .  S
C1340      C1423   1.547       .  S
C1340      C1433   1.550       .  S
C1340      C1443   1.584       .  S
C1340      C1523   1.546       .  S
C1341      C1393   1.628       .  S
C1341      C1403   1.614       .  S
C1341      C1410   1.644       .  S
C1341      C1480   1.614       .  S
O1342      C1369   1.278       .  A
C1343      O1376   1.265       .  A
C1343      O1373   1.269       .  A
C1343      C1440   1.462       .  S
O1344     Mn1368   2.099       .  S
O1345      C1355   1.262       .  A
O1346      C1369   1.247   1_545  A
O1347      C1374   1.279       .  A
O1347     Mn1366   2.204       .  S
O1348     Mn1379   1.947       .  S
C1349      O1352   1.277       .  A
C1349      C1390   1.556       .  S
C1349      O1375   1.208       .  S
O1350     Mn1370   2.133       .  S
O1350     Mn1351   2.185       .  S
O1350     Mn1384   2.109       .  S
Mn1351     O1356   2.237       .  S
O1353      C1355   1.272       .  A
C1354      O1380   1.275       .  A
C1354      C1453   1.538       .  S
C1354      O1367   1.215       .  S
C1355      C1510   1.480       .  S
O1356      C1381   1.272       .  A
O1357     Mn1379   2.178       .  S
O1358     Mn1362   1.895       .  S
O1358     Mn1384   1.925       .  S
O1358      C1381   1.212       .  S
C1359      O1385   1.266       .  A
C1359      O1361   1.258       .  A
C1359      C1493   1.440       .  S
Mn1360     O1367   1.958       .  S
O1363      C1365   1.267       .  A
O1363     Mn1368   2.064       .  S
C1364      O1382   1.283       .  A
C1364      C1413   1.569       .  S
C1365      O1378   1.256       .  A
C1365      C1430   1.433       .  S
C1369      C1503   1.435       .  S
Mn1370     O1377   2.004       .  S
C1371      O1377   1.251       .  A
C1371      O1387   1.262       .  A
C1371      C1420   1.420       .  S
O1372      C1374   1.221       .  S
C1374      C1400   1.537       .  S
O1376     Mn1379   2.055       .  S
Mn1379     O1386   1.954       .  S
C1381      C1460   1.551       .  S
O1383      C1388   1.277       .  A
Mn1384     O1387   2.052       .  S
O1386      C1388   1.231       .  S
C1388      C1473   1.545       .  S
C1389      C1390   1.409       .  A
C1389      C1394   1.428       .  A
C1389      H1396   1.084       .  S
C1390      C1391   1.437       .  A
C1391      C1392   1.421       .  A
C1392      C1393   1.418       .  A
C1392      H1397   1.079       .  S
C1393      C1394   1.439       .  A
C1394     Br1395   1.925       .  S
C1399      C1400   1.406       .  A
C1399      C1404   1.428       .  A
C1399      H1406   1.081       .  S
C1400      C1401   1.422       .  A
C1401      C1402   1.413       .  A
C1401     Br1408   1.922       .  S
C1402      C1403   1.422       .  A
C1402      H1407   1.080       .  S
C1403      C1404   1.443       .  A
C1404     Br1405   1.915       .  S
C1409      C1410   1.437       .  A
C1409      C1414   1.444       .  A
C1409      H1416   1.075       .  S
C1410      C1411   1.425       .  A
C1411      C1412   1.428       .  A
C1411     Br1418   1.906       .  S
C1412      C1413   1.416       .  A
C1412      H1417   1.082       .  S
C1413      C1414   1.422       .  A
C1414     Br1415   1.909       .  S
C1419      C1420   1.398       .  A
C1419      C1424   1.394       .  A
C1419      H1426   1.084       .  S
C1420      C1421   1.383       .  A
C1421      C1422   1.366       .  A
C1421     Br1428   1.929       .  S
C1422      C1423   1.422       .  A
C1422      H1427   1.074       .  S
C1423      C1424   1.418       .  A
C1424     Br1425   1.930       .  S
C1429      C1430   1.379       .  A
C1429      C1434   1.375       .  A
C1429      H1436   1.068       .  S
C1430      C1431   1.388       .  A
C1431      C1432   1.381       .  A
C1431     Br1438   1.910       .  S
C1432      C1433   1.429       .  A
C1432      H1437   1.080       .  S
C1433      C1434   1.429       .  A
C1434     Br1435   1.928       .  S
C1439      C1440   1.389       .  A
C1439      C1444   1.393       .  A
C1439      H1446   1.085       .  S
C1440      C1441   1.404       .  A
C1441      C1442   1.389       .  A
C1441     Br1448   1.898       .  S
C1442      C1443   1.401       .  A
C1442      H1447   1.068       .  S
C1443      C1444   1.435       .  A
C1444     Br1445   1.885       .  S
C1449      C1450   1.435       .  A
C1449      C1454   1.415       .  A
C1449      H1456   1.073       .  S
C1450      C1451   1.460       .  A
C1451      C1452   1.429       .  A
C1451     Br1458   1.911       .  S
C1452      C1453   1.394       .  A
C1452      H1457   1.077       .  S
C1453      C1454   1.409       .  A
C1454     Br1455   1.909       .  S
C1459      C1460   1.418       .  A
C1459      C1464   1.419       .  A
C1459      H1466   1.081       .  S
C1460      C1461   1.417       .  A
C1461      C1462   1.432       .  A
C1462      C1463   1.435       .  A
C1462      H1467   1.080       .  S
C1463      C1464   1.435       .  A
C1464     Br1465   1.919       .  S
C1469      C1470   1.432       .  A
C1469      C1474   1.438       .  A
C1469      H1476   1.059       .  S
C1470      C1471   1.426       .  A
C1471      C1472   1.425       .  A
C1471     Br1478   1.935       .  S
C1472      C1473   1.413       .  A
C1472      H1477   1.076       .  S
C1473      C1474   1.422       .  A
C1474     Br1475   1.901       .  S
C1479      C1480   1.416       .  A
C1479      C1484   1.430       .  A
C1479      H1486   1.079       .  S
C1480      C1481   1.426       .  A
C1481      C1482   1.416       .  A
C1481     Br1488   1.919       .  S
C1482      C1483   1.412       .  A
C1482      H1487   1.068       .  S
C1483      C1484   1.452       .  A
C1484     Br1485   1.920       .  S
C1489      C1490   1.408       .  A
C1489      C1494   1.401       .  A
C1489      H1496   1.082       .  S
C1490      C1491   1.418       .  A
C1491      C1492   1.375       .  A
C1491     Br1498   1.894       .  S
C1492      C1493   1.379       .  A
C1492      H1497   1.085       .  S
C1493      C1494   1.407       .  A
C1494     Br1495   1.911       .  S
C1499      C1500   1.408       .  A
C1499      C1504   1.365       .  A
C1499      H1506   1.076       .  S
C1500      C1501   1.450       .  A
C1501      C1502   1.399       .  A
C1501     Br1508   1.930       .  S
C1502      C1503   1.390       .  A
C1502      H1507   1.082       .  S
C1503      C1504   1.377       .  A
C1509      C1510   1.404       .  A
C1509      C1514   1.413       .  A
C1509      H1516   1.081       .  S
C1510      C1511   1.401       .  A
C1511      C1512   1.380       .  A
C1512      C1513   1.400       .  A
C1512      H1517   1.063       .  S
C1513      C1514   1.427       .  A
C1514     Br1515   1.913       .  S
C1519      C1520   1.400       .  A
C1519      C1524   1.371       .  A
C1519      H1526   1.071       .  S
C1520      C1521   1.403       .  A
C1521      C1522   1.386       .  A
C1521     Br1528   1.910       .  S
C1522      C1523   1.415       .  A
C1522      H1527   1.077       .  S
C1523      C1524   1.426       .  A
C1524     Br1525   1.949       .  S
