geometry optimzed in LAMMPS
_audit_creation_date              2020-11-30 
_audit_creation_method            'lammps2cif' 
_symmetry_space_group_name_H-M    'P1' 
_symmetry_Int_Tables_number       1 
_symmetry_cell_setting            triclinic 
loop_ 
_symmetry_equiv_pos_as_xyz 
  x,y,z 
_cell_length_a                    27.15371639 
_cell_length_b                    27.06717952569367 
_cell_length_c                    39.99215563471386 
_cell_angle_alpha                 89.97459339487082 
_cell_angle_beta                  90.02453425261785 
_cell_angle_gamma                 119.87999022677552 
loop_ 
_atom_site_label 
_atom_site_type_symbol 
_atom_site_fract_x 
_atom_site_fract_y 
_atom_site_fract_z 
_atom_site_charge 
C1          C  0.80085393  0.18263634  0.47063151     0.82000
N2          N  0.82586328  0.14992394  0.47120535    -0.76400
C3          C  0.85671819  0.15116815  0.49825701     0.84400
N4          N  0.84481376  0.16887296  0.03564019    -0.76300
C5          C  0.81119551  0.19292910  0.03766362     0.84500
N6          N  0.77700470  0.18754623  0.01167852    -0.78000
C7          C  0.03049843  0.29300127  0.03059022     0.82000
N8          N  0.00149586  0.23502726  0.03128786    -0.76400
C9          C  0.97868960  0.20966578  0.49410963     0.84400
N10         N  0.97121741  0.23533083  0.46694175    -0.76300
C11         C  0.99945788  0.29303803  0.46425685     0.84500
N12         N  0.03484888  0.32470700  0.48939222    -0.78000
C13         C  0.12461114  0.20104843  0.46823922     0.82000
N14         N  0.06695991  0.17414671  0.46911904    -0.76400
C15         C  0.03857704  0.14630717  0.49724530     0.84400
N16         N  0.06368657  0.14896895  0.02940213    -0.76300
C17         C  0.12135747  0.18117256  0.02893750     0.84500
N18         N  0.15353378  0.20102027  0.49592105    -0.78000
C19         C  0.03770962  0.00026586  0.46922743     0.82000
N20         N  0.01048688  0.03080983  0.47156340    -0.76400
C21         C  0.97617063  0.02533710  0.00200719     0.84400
N22         N  0.97228999  0.99114712  0.02789147    -0.76300
C23         C  0.00256526  0.96361279  0.02768960     0.84500
N24         N  0.03652650  0.97041023  0.00120150    -0.78000
C25         C  0.79584520  0.87056776  0.03037365     0.82000
N26         N  0.80375983  0.84331800  0.00429462    -0.76400
C27         C  0.81838015  0.87617790  0.47403901     0.84400
N28         N  0.85004597  0.93389262  0.47404661    -0.76300
C29         C  0.85334463  0.95833450  0.00319855     0.84500
N30         N  0.82088308  0.92833623  0.02975730    -0.78000
C31         C  0.69908800  0.99303783  0.03063300     0.82000
N32         N  0.75674761  0.02167026  0.03031265    -0.76400
C33         C  0.78586640  0.01477485  0.00483009     0.84400
N34         N  0.76216871  0.99077024  0.47507538    -0.76300
C35         C  0.70447601  0.96412305  0.47450842     0.84500
N36         N  0.67083876  0.95755100  0.00483309    -0.78000
C37         C  0.96952246  0.11436287  0.00352181     0.04000
C38         C  0.94650861  0.14682727  0.49708080     0.04000
C39         C  0.87671955  0.10928370  0.00618032     0.04000
C40         C  0.84907737  0.04891814  0.00445830     0.04000
C41         C  0.88184313  0.02145500  0.00307834     0.04000
C42         C  0.94200102  0.05421850  0.00248471     0.04000
O43         O  0.95149251  0.55674622  0.27748551    -0.56100
C44         C  0.91970254  0.66883378  0.20462691     0.76500
O45         O  0.80888353  0.49086920  0.21934155    -0.57200
C46         C  0.91360737  0.51344928  0.29325334     0.76500
C47         C  0.84913634  0.62956259  0.29855039     0.78900
Cd48       Cd  0.88139432  0.57544612  0.24945155     1.37500
O49         O  0.95573590  0.66076700  0.22066416    -0.56100
O50         O  0.89960990  0.63935405  0.29487452    -0.54900
C51         C  0.84558446  0.48987801  0.19986821     0.78900
O52         O  0.81127513  0.59208830  0.27950175    -0.57300
O53         O  0.86766019  0.63330269  0.20966265    -0.55700
O54         O  0.86248312  0.50123326  0.28899625    -0.55700
O55         O  0.89665011  0.52954352  0.20289130    -0.54900
O56         O  0.41617983  0.19364241  0.21948673    -0.56100
C57         C  0.52888970  0.15858167  0.29357999     0.76500
O58         O  0.35233271  0.05200280  0.28314760    -0.57200
C59         C  0.37348982  0.15381859  0.20427283     0.76500
C60         C  0.48237653  0.08558018  0.20149300     0.78900
Cd61       Cd  0.43381975  0.12413903  0.25094931     1.37500
O62         O  0.51891263  0.19641420  0.28154026    -0.56100
O63         O  0.49708267  0.13767218  0.20546561    -0.54900
C64         C  0.34901451  0.08888013  0.30135701     0.78900
O65         O  0.44285573  0.04979254  0.22042253    -0.57300
O66         O  0.49462369  0.10705043  0.28618845    -0.55700
O67         O  0.36071175  0.10316455  0.21132728    -0.55700
O68         O  0.38635434  0.14056974  0.29667211    -0.54900
O69         O  0.33208041  0.56430295  0.22266642    -0.56100
C70         C  0.46943477  0.66206727  0.30351425     0.76500
O71         O  0.40752704  0.48770008  0.27652531    -0.57200
C72         C  0.33081330  0.52680548  0.20281126     0.76500
C73         C  0.51277860  0.63975508  0.20829515     0.78900
Cd74       Cd  0.41928932  0.57754842  0.25214101     1.37500
O75         O  0.42998542  0.66023596  0.28526118    -0.56100
O76         O  0.47499343  0.65310759  0.21405148    -0.54900
C77         C  0.36877099  0.48311535  0.29639454     0.78900
O78         O  0.50693416  0.59523191  0.22287154    -0.57300
O79         O  0.48329653  0.62445784  0.29805527    -0.55700
O80         O  0.37040000  0.51525753  0.20602144    -0.55700
O81         O  0.35516329  0.52157566  0.29511106    -0.54900
C82         C  0.57662721  0.97953125  0.08392916     0.14400
C83         C  0.60475306  0.02473719  0.10655611     0.01400
C84         C  0.66431610  0.05749827  0.10546965     0.16300
C85         C  0.69514770  0.04649176  0.08150299     0.25800
C86         C  0.66699520  0.00228406  0.05790259    -0.40600
C87         C  0.60725404  0.96811348  0.06004911     0.32800
C88         C  0.57198122  0.03918315  0.13043027     0.01400
F89         F  0.69279156  0.10045014  0.12770451    -0.12900
F90         F  0.57787117  0.92356381  0.03897514    -0.13400
C91         C  0.53376898  0.99855848  0.15321464     0.16300
C92         C  0.50345395  0.01291667  0.17582914     0.25800
C93         C  0.51126106  0.06845270  0.17628656    -0.40500
C94         C  0.54909530  0.10871945  0.15303968     0.32700
C95         C  0.57872261  0.09407880  0.13031071     0.14400
F96         F  0.52687440  0.94532772  0.15415154    -0.12900
F97         F  0.55760063  0.16257248  0.15208049    -0.13400
F98         F  0.46757087  0.97277096  0.19773929    -0.15700
F99         F  0.61363462  0.13356513  0.10777399    -0.14200
F100        F  0.51908012  0.94746295  0.08416612    -0.14200
F101        F  0.75251918  0.07986493  0.08136589    -0.15700
C102        C  0.66149223  0.85753385  0.40275048     0.14400
C103        C  0.60329952  0.83918521  0.39953037     0.01400
C104        C  0.57931555  0.86387868  0.41983146     0.16300
C105        C  0.61245281  0.90539624  0.44338563     0.25800
C106        C  0.67063298  0.92297441  0.44752532    -0.40600
C107        C  0.69494814  0.89923082  0.42631732     0.32800
C108        C  0.56720587  0.79346409  0.37554092     0.01400
F109        F  0.52311764  0.84656001  0.41751650    -0.12900
F110        F  0.75085345  0.91554462  0.42852609    -0.13400
C111        C  0.56147332  0.73917056  0.37850546     0.16300
C112        C  0.52813032  0.69606551  0.35576117     0.25800
C113        C  0.49962639  0.70628850  0.32949924    -0.40500
C114        C  0.50403962  0.76025518  0.32717025     0.32700
C115        C  0.53766497  0.80347807  0.34994774     0.14400
F116        F  0.58781742  0.72770643  0.40372071    -0.12900
F117        F  0.47782371  0.77203036  0.30205464    -0.13400
F118        F  0.52357458  0.64409394  0.35960659    -0.15700
F119        F  0.54282742  0.85574749  0.34640191    -0.14200
F120        F  0.68602928  0.83510119  0.38294229    -0.14200
F121        F  0.58705716  0.92833350  0.46199954    -0.15700
C122        C  0.67907918  0.74910068  0.07969183     0.14400
C123        C  0.68811161  0.77224331  0.11194932     0.01400
C124        C  0.73352648  0.82752282  0.11768338     0.16300
C125        C  0.76899059  0.85965361  0.09130069     0.25800
C126        C  0.75938742  0.83689478  0.05872191    -0.40600
C127        C  0.71431828  0.78096543  0.05333253     0.32800
C128        C  0.64701888  0.74027295  0.13876570     0.01400
F129        F  0.74332712  0.85031953  0.14886867    -0.12900
F130        F  0.70277924  0.75765321  0.02225951    -0.13400
C131        C  0.63965271  0.68796454  0.15029158     0.16300
C132        C  0.59702592  0.65563643  0.17359270     0.25800
C133        C  0.56066230  0.67494822  0.18539681    -0.40500
C134        C  0.56931691  0.72820729  0.17421755     0.32700
C135        C  0.61196947  0.76034161  0.15114957     0.14400
F136        F  0.67332632  0.66792873  0.13860630    -0.12900
F137        F  0.53606714  0.74923689  0.18519508    -0.13400
F138        F  0.59046498  0.60486634  0.18380876    -0.15700
F139        F  0.61757371  0.81019943  0.13980140    -0.14200
F140        F  0.63450903  0.69633837  0.07344493    -0.14200
F141        F  0.81309354  0.91256958  0.09776109    -0.15700
C142        C  0.76894420  0.75539971  0.41163073     0.14400
C143        C  0.81772958  0.77401698  0.39186429     0.01400
C144        C  0.86455746  0.82870006  0.39714058     0.16300
C145        C  0.86410082  0.86284565  0.42314990     0.25800
C146        C  0.81660263  0.84291378  0.44431381    -0.40600
C147        C  0.76832320  0.78954665  0.43766689     0.32800
C148        C  0.82269641  0.73441973  0.36847751     0.01400
F149        F  0.91170896  0.84815827  0.37778908    -0.12900
F150        F  0.72079495  0.76990578  0.45670148    -0.13400
C151        C  0.78535772  0.71001255  0.34130360     0.16300
C152        C  0.79221820  0.67383113  0.31903644     0.25800
C153        C  0.83668469  0.66191410  0.32366609    -0.40500
C154        C  0.87277989  0.68521565  0.35150617     0.32700
C155        C  0.86566006  0.72080405  0.37369406     0.14400
F156        F  0.74363420  0.72279480  0.33570664    -0.12900
F157        F  0.91525325  0.67360004  0.35734820    -0.13400
F158        F  0.75717714  0.65275076  0.29218421    -0.15700
F159        F  0.90086610  0.74204862  0.40049945    -0.14200
F160        F  0.72307658  0.70287415  0.40691987    -0.14200
F161        F  0.91146311  0.91393267  0.42874465    -0.15700
C162        C  0.90941045  0.76904121  0.14234925     0.14400
C163        C  0.96642627  0.80472148  0.13369505     0.01400
C164        C  0.00865962  0.79706812  0.14898808     0.16300
C165        C  0.99392187  0.75360259  0.17254903     0.25800
C166        C  0.93648810  0.71678950  0.18088794    -0.40600
C167        C  0.89444873  0.72556567  0.16570316     0.32800
C168        C  0.98096751  0.84831098  0.10762287     0.01400
F169        F  0.06413797  0.83171716  0.14101964    -0.12900
F170        F  0.83855079  0.69192583  0.17314163    -0.13400
C171        C  0.97432962  0.89569293  0.11368460     0.16300
C172        C  0.98269941  0.93406047  0.08793934     0.25800
C173        C  0.99731846  0.92522652  0.05556336    -0.40500
C174        C  0.00534632  0.87826605  0.04991506     0.32700
C175        C  0.99723118  0.84022364  0.07576643     0.14400
F176        F  0.95917006  0.90437231  0.14452999    -0.12900
F177        F  0.01848769  0.86744847  0.01905401    -0.13400
F178        F  0.97675341  0.97993517  0.09480065    -0.15700
F179        F  0.00280166  0.79397655  0.06935134    -0.14200
F180        F  0.86796485  0.77545806  0.12744196    -0.14200
F181        F  0.03581702  0.74725755  0.18679246    -0.15700
C182        C  0.14007764  0.06932984  0.39627419     0.14400
C183        C  0.16415554  0.03398602  0.39347521     0.01400
C184        C  0.14384334  0.98576927  0.41406507     0.16300
C185        C  0.10129677  0.97365425  0.43753509     0.25800
C186        C  0.07867453  0.01032572  0.44165331    -0.40600
C187        C  0.09774367  0.05764981  0.42003368     0.32800
C188        C  0.21144884  0.04787031  0.36984271     0.01400
F189        F  0.16667938  0.95118137  0.41231826    -0.12900
F190        F  0.07614636  0.09321874  0.42192814    -0.13400
C191        C  0.26120084  0.10131703  0.37115528     0.16300
C192        C  0.30635850  0.11410637  0.34947824     0.25800
C193        C  0.30297810  0.07342522  0.32614123    -0.40500
C194        C  0.25360739  0.01944933  0.32539915     0.32700
C195        C  0.20810243  0.00706832  0.34676808     0.14400
F196        F  0.26656754  0.14095573  0.39389910    -0.12900
F197        F  0.24854015  0.97899792  0.30339352    -0.13400
F198        F  0.35355474  0.16637857  0.35159859    -0.15700
F199        F  0.16012664  0.95548289  0.34438302    -0.14200
F200        F  0.15754543  0.11527705  0.37593529    -0.14200
F201        F  0.08282897  0.92587964  0.45633773    -0.15700
C202        C  0.24878702  0.22666176  0.08625902     0.14400
C203        C  0.22786174  0.18184874  0.10943743     0.01400
C204        C  0.17045443  0.13890614  0.10762561     0.16300
C205        C  0.13528377  0.13918274  0.08208829     0.25800
C206        C  0.15668872  0.18290820  0.05794307    -0.40600
C207        C  0.21359561  0.22754601  0.06099446     0.32800
C208        C  0.26683526  0.17684159  0.13349186     0.01400
F209        F  0.14876038  0.09575431  0.13025178    -0.12900
F210        F  0.23586976  0.27204011  0.03929579    -0.13400
C211        C  0.29904602  0.22019543  0.15675820     0.16300
C212        C  0.33512892  0.21392401  0.17944725     0.25800
C213        C  0.33924520  0.16406606  0.17922444    -0.40500
C214        C  0.30774368  0.12150342  0.15537455     0.32700
C215        C  0.27237250  0.12802189  0.13273483     0.14400
F216        F  0.29438542  0.26782437  0.15809126    -0.12900
F217        F  0.31144167  0.07334200  0.15364010    -0.13400
F218        F  0.36426485  0.25553382  0.20231303    -0.15700
F219        F  0.24389028  0.08664178  0.10961404    -0.14200
F220        F  0.30418976  0.26827728  0.08704760    -0.14200
F221        F  0.08104471  0.09528884  0.08033115    -0.15700
C222        C  0.28948704  0.40351356  0.37316743     0.14400
C223        C  0.26673029  0.34659124  0.36319195     0.01400
C224        C  0.28308021  0.33430070  0.33232465     0.16300
C225        C  0.31946650  0.37883849  0.31091648     0.25800
C226        C  0.33955632  0.43583275  0.32031555    -0.40600
C227        C  0.32548900  0.44766024  0.35196766     0.32800
C228        C  0.22553815  0.30114276  0.38543435     0.01400
F229        F  0.26188647  0.27944115  0.32238717    -0.12900
F230        F  0.34603670  0.50233026  0.36217573    -0.13400
C231        C  0.17310763  0.29761151  0.39236073     0.16300
C232        C  0.13859483  0.26273099  0.41822951     0.25800
C233        C  0.15640790  0.23131360  0.43781407    -0.40500
C234        C  0.20730807  0.23228310  0.42942176     0.32700
C235        C  0.24147211  0.26678470  0.40333219     0.14400
F236        F  0.15669556  0.33013077  0.37500808    -0.12900
F237        F  0.22465843  0.20075547  0.44698504    -0.13400
F238        F  0.08980370  0.26281314  0.42551399    -0.15700
F239        F  0.29177707  0.26933845  0.39688635    -0.14200
F240        F  0.27604299  0.41631705  0.40342414    -0.14200
F241        F  0.33210683  0.36631702  0.28035015    -0.15700
C242        C  0.13389995  0.33592207  0.10365222     0.14400
C243        C  0.15068602  0.39390239  0.10765706     0.01400
C244        C  0.12499271  0.41738786  0.08760108     0.16300
C245        C  0.08485271  0.38421551  0.06331286     0.25800
C246        C  0.06973207  0.32672455  0.05825793    -0.40600
C247        C  0.09400794  0.30274508  0.07926333     0.32800
C248        C  0.19705576  0.43024471  0.13143314     0.01400
F249        F  0.14028126  0.47318634  0.09061405    -0.12900
F250        F  0.08060322  0.24758646  0.07569876    -0.13400
C251        C  0.24971749  0.43238145  0.12927252     0.16300
C252        C  0.29316667  0.46466856  0.15195488     0.25800
C253        C  0.28548073  0.49642789  0.17733749    -0.40500
C254        C  0.23337343  0.49591267  0.17883380     0.32700
C255        C  0.18950061  0.46290894  0.15619910     0.14400
F256        F  0.25942636  0.40342026  0.10484403    -0.12900
F257        F  0.22406657  0.52577601  0.20282894    -0.13400
F258        F  0.34299352  0.46471401  0.14886589    -0.15700
F259        F  0.13899867  0.46146507  0.15918528    -0.14200
F260        F  0.15655920  0.31134631  0.12328633    -0.14200
F261        F  0.06088378  0.40870054  0.04473395    -0.15700
C262        C  0.89970903  0.40751601  0.35998925     0.14400
C263        C  0.95291165  0.41068745  0.35846050     0.01400
C264        C  0.99283476  0.44698742  0.33469995     0.16300
C265        C  0.98049796  0.48087102  0.31371363     0.25800
C266        C  0.92742523  0.47813627  0.31551202    -0.40600
C267        C  0.88675725  0.44014048  0.33849303     0.32800
C268        C  0.96759491  0.37883713  0.38307383     0.01400
F269        F  0.04380929  0.44945441  0.33167440    -0.12900
F270        F  0.83469230  0.43542982  0.34092682    -0.13400
C271        C  0.93127419  0.32014097  0.38836231     0.16300
C272        C  0.94217699  0.29178280  0.41408736     0.25800
C273        C  0.99007069  0.32145249  0.43498842    -0.40500
C274        C  0.02795314  0.37955773  0.42832367     0.32700
C275        C  0.01648361  0.40792759  0.40297576     0.14400
F276        F  0.88475375  0.29022625  0.36878474    -0.12900
F277        F  0.07618757  0.40955002  0.44646940    -0.13400
F278        F  0.90478186  0.23561761  0.41891167    -0.15700
F279        F  0.05216987  0.46470456  0.39888839    -0.14200
F280        F  0.86086572  0.37445042  0.38329399    -0.14200
F281        F  0.02027078  0.51568656  0.29132011    -0.15700
C282        C  0.76409829  0.26772224  0.09844942     0.14400
C283        C  0.81596140  0.30807482  0.11266021     0.01400
C284        C  0.86537288  0.30551524  0.10531125     0.16300
C285        C  0.86349290  0.26517268  0.08262731     0.25800
C286        C  0.81218991  0.22712904  0.06676821    -0.40600
C287        C  0.76216331  0.22749870  0.07583648     0.32800
C288        C  0.81917130  0.35458446  0.13374412     0.01400
F289        F  0.91581508  0.34328599  0.11940932    -0.12900
F290        F  0.71145423  0.19000048  0.06188329    -0.13400
C291        C  0.78711246  0.34252729  0.16330255     0.16300
C292        C  0.79294280  0.38688560  0.18398340     0.25800
C293        C  0.83132633  0.44382089  0.17552654    -0.40500
C294        C  0.86164436  0.45584046  0.14529581     0.32700
C295        C  0.85508063  0.41163392  0.12441055     0.14400
F296        F  0.75216035  0.28777812  0.17290346    -0.12900
F297        F  0.89831588  0.51050898  0.13618712    -0.13400
F298        F  0.76407352  0.37404599  0.21334794    -0.15700
F299        F  0.88410351  0.42450195  0.09508425    -0.14200
F300        F  0.71582817  0.26932978  0.10496826    -0.14200
F301        F  0.91241204  0.26590305  0.07458470    -0.15700
C302        C  0.74124218  0.23437949  0.40231304     0.14400
C303        C  0.69909439  0.18274253  0.38843569     0.01400
C304        C  0.69296614  0.13110636  0.40068025     0.16300
C305        C  0.72771288  0.13118616  0.42653952     0.25800
C306        C  0.76806432  0.18270369  0.44126749    -0.40600
C307        C  0.77494856  0.23433789  0.42875981     0.32800
C308        C  0.66008658  0.18237048  0.36218779     0.01400
F309        F  0.65158378  0.08033808  0.38865735    -0.12900
F310        F  0.81472754  0.28483703  0.44199487    -0.13400
C311        C  0.65100262  0.15073038  0.33267310     0.16300
C312        C  0.60957744  0.14491976  0.30978859     0.25800
C313        C  0.57776471  0.17218216  0.31534965    -0.40500
C314        C  0.58887976  0.20649969  0.34377052     0.32700
C315        C  0.62924907  0.21102282  0.36725656     0.14400
F316        F  0.68165848  0.12463843  0.32622265    -0.12900
F317        F  0.55777290  0.23215734  0.35002287    -0.13400
F318        F  0.59982961  0.11181235  0.28230574    -0.15700
F319        F  0.63574903  0.24066203  0.39586387    -0.14200
F320        F  0.74967795  0.28489784  0.39025758    -0.14200
F321        F  0.71982233  0.08072015  0.43838005    -0.15700
C322        C  0.77475649  0.15795883  0.98398996     0.82000
N323        N  0.80705992  0.13258866  0.98226492    -0.76400
C324        C  0.84241707  0.13819760  0.00798603     0.84400
N325        N  0.86166368  0.18432153  0.52493675    -0.76300
C326        C  0.83589078  0.21631468  0.52485037     0.84500
N327        N  0.80599946  0.21554568  0.49744959    -0.78000
C328        C  0.04250392  0.29960743  0.51679968     0.82000
N329        N  0.01422362  0.24183380  0.51897347    -0.76400
C330        C  0.96596252  0.20485726  0.00579449     0.84400
N331        N  0.95987617  0.23271758  0.97929284    -0.76300
C332        C  0.98930240  0.29049695  0.97804384     0.84500
N333        N  0.02437852  0.32018301  0.00371541    -0.78000
C334        C  0.11719167  0.21198754  0.97411416     0.82000
N335        N  0.05947203  0.18033779  0.97506419    -0.76400
C336        C  0.03260116  0.14863540  0.00258369     0.84400
N337        N  0.06814531  0.14654733  0.52477360    -0.76300
C338        C  0.12594351  0.17442799  0.52445262     0.84500
N339        N  0.14719020  0.21200744  0.00121202    -0.78000
C340        C  0.04085769  0.00431408  0.97502697     0.82000
N341        N  0.01058842  0.03203191  0.97563731    -0.76400
C342        C  0.97471376  0.02241932  0.49750804     0.84400
N343        N  0.96636323  0.98323103  0.52146580    -0.76300
C344        C  0.99332560  0.95239350  0.51934579     0.84500
N345        N  0.02869564  0.96130079  0.49329282    -0.78000
C346        C  0.79025841  0.87860116  0.52953076     0.82000
N347        N  0.78894028  0.84895465  0.50189279    -0.76400
C348        C  0.83602083  0.87260332  0.97768931     0.84400
N349        N  0.86085230  0.93034308  0.97720436    -0.76300
C350        C  0.85134761  0.96403557  0.50144850     0.84500
N351        N  0.82103741  0.93644608  0.52911749    -0.78000
C352        C  0.70590188  0.01145018  0.52463513     0.82000
N353        N  0.76361914  0.03816539  0.52475072    -0.76400
C354        C  0.79196101  0.02788011  0.50010635     0.84400
N355        N  0.75677561  0.97868865  0.97919214    -0.76300
C356        C  0.69885842  0.94988824  0.97903687     0.84500
N357        N  0.67719278  0.97481906  0.49940635    -0.78000
C358        C  0.97559147  0.11571876  0.49789240     0.04000
C359        C  0.93686718  0.14184377  0.00564623     0.04000
C360        C  0.88650325  0.11803092  0.49839831     0.04000
C361        C  0.85515909  0.05797891  0.50005198     0.04000
C362        C  0.88426571  0.02680986  0.50060941     0.04000
C363        C  0.94444579  0.05544117  0.49922396     0.04000
O364        O  0.98944473  0.56848262  0.78215983    -0.56100
C365        C  0.94596971  0.66669462  0.69717410     0.76500
O366        O  0.85333578  0.49949004  0.72172428    -0.57200
C367        C  0.94941025  0.53062252  0.80008641     0.76500
C368        C  0.89550958  0.64961317  0.79614812     0.78900
Cd369      Cd  0.92280582  0.58730585  0.74993444     1.37500
O370        O  0.98720645  0.66671166  0.71263133    -0.56100
O371        O  0.94638213  0.66375478  0.78865341    -0.54900
C372        C  0.89184031  0.49279513  0.70763811     0.78900
O373        O  0.85608994  0.60516716  0.78198712    -0.57300
O374        O  0.89611609  0.62947688  0.70601263    -0.55700
O375        O  0.89958404  0.52212613  0.79517738    -0.55700
O376        O  0.94308301  0.53079239  0.71294165    -0.54900
O377        O  0.40470053  0.17692140  0.72187181    -0.56100
C378        C  0.51202326  0.13673204  0.80019433     0.76500
O379        O  0.34094928  0.03598687  0.78408452    -0.57200
C380        C  0.36118356  0.13699940  0.70724001     0.76500
C381        C  0.48109963  0.08248849  0.70179788     0.78900
Cd382      Cd  0.42414480  0.10851448  0.75282205     1.37500
O383        O  0.50321302  0.17578767  0.78886736    -0.56100
O384        O  0.49312120  0.13309922  0.70876974    -0.54900
C385        C  0.33884411  0.07323872  0.80269844     0.78900
O386        O  0.44099238  0.04255559  0.71857323    -0.57300
O387        O  0.48102361  0.08655239  0.78911290    -0.55700
O388        O  0.34869781  0.08633807  0.71427329    -0.55700
O389        O  0.37687490  0.12482500  0.79830991    -0.54900
O390        O  0.32853330  0.57265120  0.71256715    -0.56100
C391        C  0.46540442  0.66628941  0.79803890     0.76500
O392        O  0.38726855  0.49436518  0.77693853    -0.57200
C393        C  0.32412382  0.52962625  0.69672170     0.76500
C394        C  0.50041098  0.63703127  0.70036546     0.78900
Cd395      Cd  0.40971580  0.58294791  0.74671854     1.37500
O396        O  0.42768066  0.66821170  0.77986310    -0.56100
O397        O  0.46272313  0.65117548  0.70442839    -0.54900
C398        C  0.34482143  0.49237463  0.79198972     0.78900
O399        O  0.49644139  0.59606721  0.71819327    -0.57300
O400        O  0.47587016  0.62642553  0.79194702    -0.55700
O401        O  0.36006699  0.51427468  0.70391278    -0.55700
O402        O  0.33431947  0.53217304  0.78566159    -0.54900
C403        C  0.58337030  0.99697707  0.57825040     0.14400
C404        C  0.61106201  0.04224103  0.60089382     0.01400
C405        C  0.67036129  0.07735832  0.59862516     0.16300
C406        C  0.70131767  0.06744458  0.57409838     0.25800
C407        C  0.67368637  0.02182191  0.55137039    -0.40600
C408        C  0.61416004  0.98639220  0.55412044     0.32800
C409        C  0.57783048  0.05248932  0.62677491     0.01400
F410        F  0.69855290  0.12095611  0.62049646    -0.12900
F411        F  0.58510070  0.94079146  0.53370922    -0.13400
C412        C  0.54201649  0.00870491  0.64885048     0.16300
C413        C  0.50976221  0.01788720  0.67279901     0.25800
C414        C  0.51325160  0.07143388  0.67552886    -0.40500
C415        C  0.54931285  0.11525146  0.65335128     0.32700
C416        C  0.58089032  0.10571786  0.62916830     0.14400
F417        F  0.53914827  0.95719587  0.64767551    -0.12900
F418        F  0.55373944  0.16744286  0.65468580    -0.13400
F419        F  0.47611650  0.97459693  0.69374595    -0.15700
F420        F  0.61369115  0.14833324  0.60758972    -0.14200
F421        F  0.52598302  0.96335395  0.57906938    -0.14200
F422        F  0.75826548  0.10289813  0.57260842    -0.15700
C423        C  0.65598609  0.84649755  0.90550818     0.14400
C424        C  0.59910291  0.83230500  0.90027533     0.01400
C425        C  0.57616019  0.85856712  0.92023055     0.16300
C426        C  0.60899186  0.89772125  0.94502033     0.25800
C427        C  0.66562042  0.91104859  0.95098169    -0.40600
C428        C  0.68889264  0.88544163  0.93052038     0.32800
C429        C  0.56341144  0.78953463  0.87446724     0.01400
F430        F  0.52117142  0.84512123  0.91636484    -0.12900
F431        F  0.74308332  0.89691624  0.93513479    -0.13400
C432        C  0.55662400  0.73456102  0.87493721     0.16300
C433        C  0.52398749  0.69451039  0.85050102     0.25800
C434        C  0.49678957  0.70820927  0.82503553    -0.40500
C435        C  0.50223585  0.76272263  0.82509246     0.32700
C436        C  0.53543350  0.80303490  0.84945438     0.14400
F437        F  0.58095318  0.71919660  0.89946336    -0.12900
F438        F  0.47706636  0.77778835  0.80094608    -0.13400
F439        F  0.51855603  0.64189166  0.85208753    -0.15700
F440        F  0.54154450  0.85591492  0.84803164    -0.14200
F441        F  0.67986882  0.82271679  0.88626788    -0.14200
F442        F  0.58504859  0.92285899  0.96298626    -0.15700
C443        C  0.71429957  0.76051801  0.59260420     0.14400
C444        C  0.68202987  0.77945840  0.61010296     0.01400
C445        C  0.69018193  0.83411321  0.60340136     0.16300
C446        C  0.72746970  0.86786041  0.57815604     0.25800
C447        C  0.75719607  0.84737920  0.55926551    -0.40600
C448        C  0.75162783  0.79421322  0.56743650     0.32800
C449        C  0.63585255  0.74026080  0.63274249     0.01400
F450        F  0.66041462  0.85390830  0.62057809    -0.12900
F451        F  0.78153159  0.77428783  0.55053157    -0.13400
C452        C  0.64682074  0.71599173  0.66088272     0.16300
C453        C  0.60237066  0.67991921  0.68230586     0.25800
C454        C  0.54660320  0.66825894  0.67597972    -0.40500
C455        C  0.53566872  0.69098314  0.64712173     0.32700
C456        C  0.57974309  0.72627726  0.62565855     0.14400
F457        F  0.70073721  0.72878375  0.66820306    -0.12900
F458        F  0.48201587  0.67887043  0.63958449    -0.13400
F459        F  0.61428035  0.65879125  0.71001111    -0.15700
F460        F  0.56757046  0.74670988  0.59771407    -0.14200
F461        F  0.70727122  0.70799440  0.59853533    -0.14200
F462        F  0.73168510  0.91883872  0.57085121    -0.15700
C463        C  0.85008199  0.75938158  0.92996534     0.14400
C464        C  0.85575555  0.77891238  0.89693522     0.01400
C465        C  0.85546100  0.82975430  0.89038780     0.16300
C466        C  0.84967257  0.86079409  0.91660265     0.25800
C467        C  0.84379848  0.84119058  0.94978735    -0.40600
C468        C  0.84396470  0.79003694  0.95614715     0.32800
C469        C  0.86414029  0.74709029  0.86959968     0.01400
F470        F  0.85997085  0.84882172  0.85851118    -0.12900
F471        F  0.83962537  0.77026156  0.98785095    -0.13400
C472        C  0.82096473  0.69201223  0.86103461     0.16300
C473        C  0.83036880  0.66063372  0.83653422     0.25800
C474        C  0.88355052  0.68365219  0.82053974    -0.40500
C475        C  0.92633569  0.73941479  0.82889878     0.32700
C476        C  0.91657144  0.77077409  0.85310024     0.14400
F477        F  0.76980172  0.66853168  0.87663341    -0.12900
F478        F  0.97791715  0.76381378  0.81374932    -0.13400
F479        F  0.78798424  0.60719121  0.82926347    -0.15700
F480        F  0.95903343  0.82376691  0.86122717    -0.14200
F481        F  0.85181302  0.71116037  0.93693335    -0.14200
F482        F  0.84824697  0.90907275  0.90937412    -0.15700
C483        C  0.91772008  0.75990446  0.63842080     0.14400
C484        C  0.96835247  0.78775004  0.62006246     0.01400
C485        C  0.01169480  0.77492209  0.62654188     0.16300
C486        C  0.00494731  0.73579683  0.65168844     0.25800
C487        C  0.95433862  0.70828569  0.67041108    -0.40600
C488        C  0.91062848  0.72051322  0.66320856     0.32800
C489        C  0.97548805  0.83025610  0.59431806     0.01400
F490        F  0.06081316  0.80086148  0.60878492    -0.12900
F491        F  0.86109385  0.69513123  0.68058928    -0.13400
C492        C  0.97488083  0.88012050  0.60346385     0.16300
C493        C  0.97966361  0.91949864  0.57911269     0.25800
C494        C  0.98538479  0.90974662  0.54515978    -0.40500
C495        C  0.98590924  0.85967820  0.53608877     0.32700
C496        C  0.98088812  0.82029592  0.56044528     0.14400
F497        F  0.97065953  0.89109762  0.63613861    -0.12900
F498        F  0.98997875  0.84811752  0.50349718    -0.13400
F499        F  0.98069912  0.96803652  0.58888945    -0.15700
F500        F  0.97998334  0.77172303  0.55087983    -0.14200
F501        F  0.87469712  0.77048472  0.63203263    -0.14200
F502        F  0.04741929  0.72411125  0.65725210    -0.15700
C503        C  0.14024143  0.06732241  0.90045813     0.14400
C504        C  0.15893041  0.02775257  0.89620538     0.01400
C505        C  0.13594548  0.97888904  0.91629940     0.16300
C506        C  0.09644032  0.97052717  0.94115109     0.25800
C507        C  0.07899062  0.01111394  0.94653960    -0.40600
C508        C  0.10036167  0.05897697  0.92524459     0.32800
C509        C  0.20475951  0.03871588  0.87222932     0.01400
F510        F  0.15345345  0.94013318  0.91267436    -0.12900
F511        F  0.08427023  0.09876739  0.92897170    -0.13400
C512        C  0.25933236  0.08555040  0.87702929     0.16300
C513        C  0.30336195  0.09548705  0.85509025     0.25800
C514        C  0.29361110  0.05870022  0.82782319    -0.40500
C515        C  0.23916058  0.01103508  0.82349230     0.32700
C516        C  0.19504960  0.00124419  0.84549081     0.14400
F517        F  0.27016315  0.12124661  0.90334628    -0.12900
F518        F  0.22799081  0.97519726  0.79724360    -0.13400
F519        F  0.35575031  0.14095586  0.86074908    -0.15700
F520        F  0.14244029  0.95592808  0.84025840    -0.14200
F521        F  0.16113422  0.11440374  0.88078512    -0.14200
F522        F  0.07563820  0.92256000  0.95998315    -0.15700
C523        C  0.25010692  0.21078374  0.58337198     0.14400
C524        C  0.22321768  0.17271977  0.60986555     0.01400
C525        C  0.16381513  0.13789661  0.60932423     0.16300
C526        C  0.13202320  0.13914188  0.58207190     0.25800
C527        C  0.15902008  0.17560384  0.55464004    -0.40600
C528        C  0.21854112  0.21241565  0.55611975     0.32800
C529        C  0.25752619  0.16448496  0.63590615     0.01400
F530        F  0.13663016  0.10145279  0.63496656    -0.12900
F531        F  0.24688457  0.24956383  0.53096975    -0.13400
C532        C  0.29505557  0.20929719  0.65688705     0.16300
C533        C  0.32893757  0.20086897  0.68023324     0.25800
C534        C  0.32602215  0.14750852  0.68279544    -0.40500
C535        C  0.28809332  0.10288006  0.66169145     0.32700
C536        C  0.25439474  0.11133828  0.63865416     0.14400
F537        F  0.29838333  0.26096231  0.65501376    -0.12900
F538        F  0.28427290  0.05093066  0.66264834    -0.13400
F539        F  0.36382313  0.24458404  0.70057841    -0.15700
F540        F  0.21965623  0.06772359  0.61817359    -0.14200
F541        F  0.30749582  0.24447933  0.58305253    -0.14200
F542        F  0.07504348  0.10301342  0.58222402    -0.15700
C543        C  0.23471141  0.40952110  0.85879292     0.14400
C544        C  0.24129106  0.36174977  0.86343887     0.01400
C545        C  0.28135087  0.35618252  0.84387613     0.16300
C546        C  0.31493299  0.39822099  0.82047832     0.25800
C547        C  0.30885580  0.44657304  0.81609276    -0.40600
C548        C  0.26771662  0.45121144  0.83532092     0.32800
C549        C  0.20875669  0.31988375  0.89013727     0.01400
F550        F  0.28790210  0.30989140  0.84742982    -0.12900
F551        F  0.25998983  0.49684332  0.83211060    -0.13400
C552        C  0.14908982  0.29238467  0.89120651     0.16300
C553        C  0.11899807  0.25648361  0.91798656     0.25800
C554        C  0.14807821  0.24722280  0.94433818    -0.40500
C555        C  0.20799254  0.27369918  0.94242264     0.32700
C556        C  0.23774108  0.30983485  0.91586900     0.14400
F557        F  0.11988847  0.30063765  0.86633575    -0.12900
F558        F  0.23860895  0.26543392  0.96636634    -0.13400
F559        F  0.06154438  0.23190997  0.91826152    -0.15700
F560        F  0.29540073  0.33689951  0.91602301    -0.14200
F561        F  0.19765734  0.41701286  0.87795463    -0.14200
F562        F  0.35320545  0.39139416  0.80215753    -0.15700
C563        C  0.10671639  0.34759487  0.60334174     0.14400
C564        C  0.15252703  0.40219302  0.59669703     0.01400
C565        C  0.16166528  0.42337508  0.56392662     0.16300
C566        C  0.12604850  0.39010968  0.53795221     0.25800
C567        C  0.08020390  0.33500707  0.54437384    -0.40600
C568        C  0.07072848  0.31430720  0.57748394     0.32800
C569        C  0.19448289  0.43446610  0.62310935     0.01400
F570        F  0.20667569  0.47544919  0.55687025    -0.12900
F571        F  0.02639801  0.26203323  0.58499600    -0.13400
C572        C  0.23152563  0.41576013  0.63381534     0.16300
C573        C  0.27358948  0.44691104  0.65740798     0.25800
C574        C  0.27922141  0.49750795  0.67128728    -0.40500
C575        C  0.24126722  0.51579698  0.66076257     0.32700
C576        C  0.19946177  0.48462997  0.63667269     0.14400
F577        F  0.22758412  0.36754883  0.62082532    -0.12900
F578        F  0.24470877  0.56388512  0.67351422    -0.13400
F579        F  0.30876089  0.42709056  0.66654470    -0.15700
F580        F  0.16360481  0.50313902  0.62670229    -0.14200
F581        F  0.09724399  0.32634716  0.63491555    -0.14200
F582        F  0.13805885  0.41103434  0.50632920    -0.15700
C583        C  0.93099306  0.44414871  0.87796913     0.14400
C584        C  0.96622228  0.42111368  0.87123361     0.01400
C585        C  0.99750883  0.43569115  0.84127495     0.16300
C586        C  0.99394652  0.47320306  0.81850974     0.25800
C587        C  0.95863893  0.49622166  0.82530986    -0.40600
C588        C  0.92708568  0.48117926  0.85518161     0.32800
C589        C  0.97262216  0.38462897  0.89645927     0.01400
F590        F  0.03045333  0.41249978  0.83379085    -0.12900
F591        F  0.89283261  0.50295610  0.86249370    -0.13400
C592        C  0.92556901  0.33305815  0.90692942     0.16300
C593        C  0.93125410  0.30130744  0.93277664     0.25800
C594        C  0.98387410  0.32121298  0.94894605    -0.40500
C595        C  0.03118285  0.37200315  0.93772482     0.32700
C596        C  0.02558606  0.40326914  0.91167769     0.14400
F597        F  0.87398959  0.31383363  0.89237936    -0.12900
F598        F  0.08304903  0.39143732  0.95191857    -0.13400
F599        F  0.88481099  0.25237800  0.94285979    -0.15700
F600        F  0.07154525  0.45305461  0.90212339    -0.14200
F601        F  0.90111451  0.43156302  0.90696831    -0.14200
F602        F  0.02285428  0.48488948  0.78920024    -0.15700
C603        C  0.83432514  0.33130317  0.57835439     0.14400
C604        C  0.84828493  0.31942940  0.60996915     0.01400
C605        C  0.85750885  0.27315122  0.61381186     0.16300
C606        C  0.85355578  0.23953652  0.58626170     0.25800
C607        C  0.84001874  0.25158529  0.55429818    -0.40600
C608        C  0.83016006  0.29781434  0.55079368     0.32800
C609        C  0.85720558  0.35820292  0.63817390     0.01400
F610        F  0.87033291  0.26054395  0.64431947    -0.12900
F611        F  0.81835071  0.31212582  0.52050320    -0.13400
C612        C  0.81282234  0.36634775  0.64953000     0.16300
C613        C  0.82331230  0.40857604  0.67318165     0.25800
C614        C  0.87864011  0.44378070  0.68553741    -0.40500
C615        C  0.92235418  0.43322349  0.67535302     0.32700
C616        C  0.91164639  0.39089441  0.65187540     0.14400
F617        F  0.75954041  0.33412667  0.63711274    -0.12900
F618        F  0.97594105  0.46449492  0.68757193    -0.13400
F619        F  0.77972533  0.41621944  0.68299939    -0.15700
F620        F  0.95519157  0.38369595  0.64127721    -0.14200
F621        F  0.82676394  0.37684046  0.57392966    -0.14200
F622        F  0.86259802  0.19504161  0.59110663    -0.15700
C623        C  0.70271977  0.20540842  0.92131351     0.14400
C624        C  0.66698677  0.15445530  0.90430712     0.01400
C625        C  0.66763689  0.10442611  0.91333281     0.16300
C626        C  0.70381880  0.10557036  0.93867264     0.25800
C627        C  0.73912133  0.15647998  0.95576056    -0.40600
C628        C  0.73810941  0.20632186  0.94693240     0.32800
C629        C  0.62948493  0.15358643  0.87700984     0.01400
F630        F  0.63204164  0.05409514  0.89822497    -0.12900
F631        F  0.77220896  0.25635270  0.96281753    -0.13400
C632        C  0.63225102  0.13310987  0.84517460     0.16300
C633        C  0.59506531  0.12939885  0.81984436     0.25800
C634        C  0.55561002  0.14767209  0.82555791    -0.40500
C635        C  0.55391411  0.16991510  0.85696586     0.32700
C636        C  0.59027684  0.17244084  0.88262967     0.14400
F637        F  0.67100308  0.11659882  0.83864106    -0.12900
F638        F  0.51466131  0.18579356  0.86339492    -0.13400
F639        F  0.59731289  0.10759698  0.78968117    -0.15700
F640        F  0.58547377  0.19092812  0.91336734    -0.14200
F641        F  0.70403611  0.25461213  0.91277555    -0.14200
F642        F  0.70259274  0.05654149  0.94744200    -0.15700
loop_ 
_geom_bond_atom_site_label_1 
_geom_bond_atom_site_label_2 
_geom_bond_distance 
_geom_bond_site_symmetry_2 
_ccdc_geom_bond_type 
C1            N2   1.358       .  A
C1          N327   1.356       .  A
C1          C306   1.474       .  S
N2            C3   1.358       .  A
C3          N325   1.357       .  A
C3          C360   1.477       .  S
N4            C5   1.362       .  A
N4          C324   1.365       .  A
C5            N6   1.352       .  A
C5          C286   1.479       .  S
N6          C322   1.350   1_554  A
C7            N8   1.361       .  A
C7          N333   1.358       .  A
C7          C246   1.491       .  S
N8          C330   1.361   1_455  A
C9           N10   1.358       .  A
C9          N329   1.357   1_655  A
C9           C38   1.480       .  S
N10          C11   1.359       .  A
C11          N12   1.359   1_655  A
C11         C273   1.490       .  S
N12         C328   1.359       .  A
C13          N14   1.359       .  A
C13          N18   1.357       .  A
C13         C233   1.481       .  S
N14          C15   1.360       .  A
C15         N337   1.360       .  A
C15         C358   1.483   1_455  S
N16          C17   1.361       .  A
N16         C336   1.362       .  A
C17         N339   1.354       .  A
C17         C206   1.491       .  S
N18         C338   1.358       .  A
C19          N20   1.359       .  A
C19         N345   1.357   1_545  A
C19         C186   1.492       .  S
N20         C342   1.361   1_455  A
C21          N22   1.357   1_545  A
C21         N341   1.360   1_654  A
C21          C42   1.482       .  S
N22          C23   1.357   1_655  A
C23          N24   1.356       .  A
C23         C173   1.481   1_455  S
N24         C340   1.358   1_564  A
C25          N26   1.355       .  A
C25          N30   1.360       .  A
C25         C126   1.482       .  S
N26         C348   1.355   1_554  A
C27          N28   1.357       .  A
C27         N347   1.355       .  A
C27         C146   1.478       .  S
N28         C350   1.356       .  A
C29          N30   1.361       .  A
C29         N349   1.361   1_554  A
C29          C41   1.483   1_565  S
C31          N32   1.358   1_565  A
C31          N36   1.357       .  A
C31          C86   1.493   1_565  S
N32          C33   1.359       .  A
C33         N355   1.364   1_544  A
C33          C40   1.490       .  S
N34          C35   1.360       .  A
N34         C354   1.362   1_565  A
C35         N357   1.356       .  A
C35         C106   1.493       .  S
N36         C356   1.358   1_554  A
C37         C336   1.487   1_655  S
C37          C42   1.414       .  A
C37         C359   1.416       .  A
C38         C358   1.413       .  A
C38         C360   1.414       .  A
C39         C324   1.487       .  S
C39          C40   1.420       .  A
C39         C359   1.418       .  A
C40          C41   1.416       .  A
C41          C42   1.418       .  A
O43          C46   1.276       .  A
O43         Cd48   2.469       .  S
C44         C166   1.484       .  S
C44          O53   1.268       .  A
C44          O49   1.276       .  A
O45          C51   1.276       .  A
O45         Cd48   2.465       .  S
C46         C266   1.484       .  S
C46          O54   1.268       .  A
C47         C153   1.479       .  S
C47          O52   1.276       .  A
C47          O50   1.268       .  A
Cd48         O55   2.387       .  S
Cd48         O54   2.402       .  S
Cd48         O53   2.388       .  S
Cd48         O49   2.467       .  S
Cd48         O52   2.476       .  S
Cd48         O50   2.385       .  S
C51         C293   1.474       .  S
C51          O55   1.268       .  A
O56          C59   1.277       .  A
O56         Cd61   2.499       .  S
C57         C313   1.472       .  S
C57          O66   1.267       .  A
C57          O62   1.277       .  A
O58          C64   1.275       .  A
O58         Cd61   2.462       .  S
C59         C213   1.484       .  S
C59          O67   1.267       .  A
C60          C93   1.486       .  S
C60          O65   1.276       .  A
C60          O63   1.270       .  A
Cd61         O68   2.403       .  S
Cd61         O67   2.377       .  S
Cd61         O66   2.384       .  S
Cd61         O62   2.482       .  S
Cd61         O65   2.469       .  S
Cd61         O63   2.402       .  S
C64         C193   1.483       .  S
C64          O68   1.268       .  A
O69          C72   1.276       .  A
O69         Cd74   2.506       .  S
C70         C113   1.486       .  S
C70          O79   1.268       .  A
C70          O75   1.276       .  A
O71          C77   1.275       .  A
O71         Cd74   2.488       .  S
C72         C253   1.490       .  S
C72          O80   1.267       .  A
C73         C133   1.484       .  S
C73          O78   1.275       .  A
C73          O76   1.267       .  A
Cd74         O81   2.377       .  S
Cd74         O80   2.404       .  S
Cd74         O79   2.409       .  S
Cd74         O75   2.490       .  S
Cd74         O78   2.476       .  S
Cd74         O76   2.389       .  S
C77         C226   1.473       .  S
C77          O81   1.267       .  A
C82          C83   1.403   1_565  A
C82          C87   1.399       .  A
C82         F100   1.358       .  S
C83          C88   1.485       .  S
C83          C84   1.405       .  A
C84          C85   1.399       .  A
C84          F89   1.358       .  S
C85          C86   1.413       .  A
C85         F101   1.357       .  S
C86          C87   1.414   1_545  A
C87          F90   1.357       .  S
C88          C91   1.407   1_545  A
C88          C95   1.404       .  A
C91          C92   1.402   1_565  A
C91          F96   1.358       .  S
C92          C93   1.410       .  A
C92          F98   1.358   1_545  S
C93          C94   1.411       .  A
C94          C95   1.396       .  A
C94          F97   1.358       .  S
C95          F99   1.358       .  S
C102        C103   1.406       .  A
C102        C107   1.402       .  A
C102        F120   1.358       .  S
C103        C108   1.485       .  S
C103        C104   1.402       .  A
C104        C105   1.397       .  A
C104        F109   1.358       .  S
C105        C106   1.414       .  A
C105        F121   1.357       .  S
C106        C107   1.411       .  A
C107        F110   1.356       .  S
C108        C111   1.404       .  A
C108        C115   1.407       .  A
C111        C112   1.399       .  A
C111        F116   1.358       .  S
C112        C113   1.411       .  A
C112        F118   1.358       .  S
C113        C114   1.408       .  A
C114        C115   1.403       .  A
C114        F117   1.357       .  S
C115        F119   1.358       .  S
C122        C123   1.401       .  A
C122        C127   1.396       .  A
C122        F140   1.358       .  S
C123        C128   1.477       .  S
C123        C124   1.405       .  A
C124        C125   1.401       .  A
C124        F129   1.358       .  S
C125        C126   1.409       .  A
C125        F141   1.358       .  S
C126        C127   1.411       .  A
C127        F130   1.358       .  S
C128        C131   1.405       .  A
C128        C135   1.401       .  A
C131        C132   1.402       .  A
C131        F136   1.358       .  S
C132        C133   1.409       .  A
C132        F138   1.357       .  S
C133        C134   1.413       .  A
C134        C135   1.395       .  A
C134        F137   1.358       .  S
C135        F139   1.358       .  S
C142        C143   1.403       .  A
C142        C147   1.398       .  A
C142        F160   1.358       .  S
C143        C148   1.479       .  S
C143        C144   1.406       .  A
C144        C145   1.396       .  A
C144        F149   1.358       .  S
C145        C146   1.406       .  A
C145        F161   1.358       .  S
C146        C147   1.410       .  A
C147        F150   1.358       .  S
C148        C151   1.406       .  A
C148        C155   1.403       .  A
C151        C152   1.403       .  A
C151        F156   1.358       .  S
C152        C153   1.409       .  A
C152        F158   1.358       .  S
C153        C154   1.408       .  A
C154        C155   1.393       .  A
C154        F157   1.358       .  S
C155        F159   1.359       .  S
C162        C163   1.400       .  A
C162        C167   1.395       .  A
C162        F180   1.359       .  S
C163        C168   1.473       .  S
C163        C164   1.403   1_655  A
C164        C165   1.401   1_455  A
C164        F169   1.358       .  S
C165        C166   1.410       .  A
C165        F181   1.357   1_655  S
C166        C167   1.413       .  A
C167        F170   1.358       .  S
C168        C171   1.402       .  A
C168        C175   1.401       .  A
C171        C172   1.398       .  A
C171        F176   1.358       .  S
C172        C173   1.409       .  A
C172        F178   1.358       .  S
C173        C174   1.411   1_655  A
C174        C175   1.397   1_455  A
C174        F177   1.357       .  S
C175        F179   1.358   1_655  S
C182        C183   1.407       .  A
C182        C187   1.401       .  A
C182        F200   1.358       .  S
C183        C188   1.484       .  S
C183        C184   1.403   1_545  A
C184        C185   1.395       .  A
C184        F189   1.358       .  S
C185        C186   1.413   1_565  A
C185        F201   1.357       .  S
C186        C187   1.412       .  A
C187        F190   1.356       .  S
C188        C191   1.405       .  A
C188        C195   1.407       .  A
C191        C192   1.397       .  A
C191        F196   1.358       .  S
C192        C193   1.411       .  A
C192        F198   1.358       .  S
C193        C194   1.408       .  A
C194        C195   1.399       .  A
C194        F197   1.358   1_545  S
C195        F199   1.358   1_545  S
C202        C203   1.402       .  A
C202        C207   1.399       .  A
C202        F220   1.358       .  S
C203        C208   1.485       .  S
C203        C204   1.407       .  A
C204        C205   1.401       .  A
C204        F209   1.358       .  S
C205        C206   1.409       .  A
C205        F221   1.357       .  S
C206        C207   1.415       .  A
C207        F210   1.358       .  S
C208        C211   1.409       .  A
C208        C215   1.403       .  A
C211        C212   1.406       .  A
C211        F216   1.358       .  S
C212        C213   1.409       .  A
C212        F218   1.358       .  S
C213        C214   1.410       .  A
C214        C215   1.393       .  A
C214        F217   1.358       .  S
C215        F219   1.358       .  S
C222        C223   1.402       .  A
C222        C227   1.392       .  A
C222        F240   1.358       .  S
C223        C228   1.478       .  S
C223        C224   1.407       .  A
C224        C225   1.406       .  A
C224        F229   1.358       .  S
C225        C226   1.407       .  A
C225        F241   1.358       .  S
C226        C227   1.405       .  A
C227        F230   1.358       .  S
C228        C231   1.406       .  A
C228        C235   1.402       .  A
C231        C232   1.399       .  A
C231        F236   1.358       .  S
C232        C233   1.407       .  A
C232        F238   1.358       .  S
C233        C234   1.410       .  A
C234        C235   1.399       .  A
C234        F237   1.358       .  S
C235        F239   1.358       .  S
C242        C243   1.408       .  A
C242        C247   1.401       .  A
C242        F260   1.358       .  S
C243        C248   1.491       .  S
C243        C244   1.405       .  A
C244        C245   1.401       .  A
C244        F249   1.358       .  S
C245        C246   1.412       .  A
C245        F261   1.358       .  S
C246        C247   1.410       .  A
C247        F250   1.357       .  S
C248        C251   1.405       .  A
C248        C255   1.409       .  A
C251        C252   1.397       .  A
C251        F256   1.358       .  S
C252        C253   1.412       .  A
C252        F258   1.358       .  S
C253        C254   1.409       .  A
C254        C255   1.406       .  A
C254        F257   1.357       .  S
C255        F259   1.358       .  S
C262        C263   1.405       .  A
C262        C267   1.397       .  A
C262        F280   1.357       .  S
C263        C268   1.487       .  S
C263        C264   1.408       .  A
C264        C265   1.401       .  A
C264        F269   1.358   1_655  S
C265        C266   1.408       .  A
C265        F281   1.357   1_655  S
C266        C267   1.411       .  A
C267        F270   1.358       .  S
C268        C271   1.407       .  A
C268        C275   1.405   1_655  A
C271        C272   1.400       .  A
C271        F276   1.358       .  S
C272        C273   1.412       .  A
C272        F278   1.357       .  S
C273        C274   1.411   1_655  A
C274        C275   1.397       .  A
C274        F277   1.357       .  S
C275        F279   1.358       .  S
C282        C283   1.402       .  A
C282        C287   1.396       .  A
C282        F300   1.358       .  S
C283        C288   1.482       .  S
C283        C284   1.409       .  A
C284        C285   1.401       .  A
C284        F289   1.358       .  S
C285        C286   1.405       .  A
C285        F301   1.357       .  S
C286        C287   1.411       .  A
C287        F290   1.358       .  S
C288        C291   1.407       .  A
C288        C295   1.405       .  A
C291        C292   1.401       .  A
C291        F296   1.357       .  S
C292        C293   1.405       .  A
C292        F298   1.358       .  S
C293        C294   1.407       .  A
C294        C295   1.396       .  A
C294        F297   1.359       .  S
C295        F299   1.358       .  S
C302        C303   1.406       .  A
C302        C307   1.399       .  A
C302        F320   1.357       .  S
C303        C308   1.487       .  S
C303        C304   1.410       .  A
C304        C305   1.399       .  A
C304        F309   1.358       .  S
C305        C306   1.403       .  A
C305        F321   1.358       .  S
C306        C307   1.406       .  A
C307        F310   1.358       .  S
C308        C311   1.406       .  A
C308        C315   1.411       .  A
C311        C312   1.397       .  A
C311        F316   1.358       .  S
C312        C313   1.406       .  A
C312        F318   1.358       .  S
C313        C314   1.403       .  A
C314        C315   1.402       .  A
C314        F317   1.358       .  S
C315        F319   1.358       .  S
C322        N323   1.359       .  A
C322        C627   1.474       .  S
N323        C324   1.363   1_556  A
N325        C326   1.358       .  A
C326        N327   1.357       .  A
C326        C607   1.485       .  S
C328        N329   1.359       .  A
C328        C567   1.485       .  S
C330        N331   1.357   1_554  A
C330        C359   1.480       .  S
N331        C332   1.357       .  A
C332        N333   1.358   1_656  A
C332        C594   1.479       .  S
C334        N335   1.362       .  A
C334        N339   1.355   1_556  A
C334        C554   1.495       .  S
N335        C336   1.362   1_556  A
N337        C338   1.361       .  A
C338        C527   1.495       .  S
C340        N341   1.361       .  A
C340        C507   1.488       .  S
C342        N343   1.362   1_545  A
C342        C363   1.487       .  S
N343        C344   1.360       .  A
C344        N345   1.355   1_655  A
C344        C494   1.482       .  S
C346        N347   1.356       .  A
C346        N351   1.359       .  A
C346        C447   1.476       .  S
C348        N349   1.359       .  A
C348        C467   1.481       .  S
C350        N351   1.359       .  A
C350        C362   1.474   1_565  S
C352        N353   1.360       .  A
C352        N357   1.356   1_545  A
C352        C407   1.494       .  S
N353        C354   1.362       .  A
C354        C361   1.488       .  S
N355        C356   1.364       .  A
C356        C427   1.494       .  S
C358        C363   1.416       .  A
C360        C361   1.412       .  A
C361        C362   1.415       .  A
C362        C363   1.419       .  A
O364        C367   1.279       .  A
O364       Cd369   2.472       .  S
C365        C487   1.486       .  S
C365        O374   1.270       .  A
C365        O370   1.279       .  A
O366        C372   1.278       .  A
O366       Cd369   2.452       .  S
C367        C587   1.476       .  S
C367        O375   1.270       .  A
C368        C474   1.485       .  S
C368        O373   1.277       .  A
C368        O371   1.272       .  A
Cd369       O376   2.382       .  S
Cd369       O375   2.382       .  S
Cd369       O374   2.395       .  S
Cd369       O370   2.481       .  S
Cd369       O373   2.456       .  S
Cd369       O371   2.402       .  S
C372        C614   1.482       .  S
C372        O376   1.270       .  A
O377        C380   1.278       .  A
O377       Cd382   2.492       .  S
C378        C634   1.472       .  S
C378        O387   1.269       .  A
C378        O383   1.277       .  A
O379        C385   1.278       .  A
O379       Cd382   2.470       .  S
C380        C534   1.489       .  S
C380        O388   1.269       .  A
C381        C414   1.489       .  S
C381        O386   1.277       .  A
C381        O384   1.271       .  A
Cd382       O389   2.391       .  S
Cd382       O388   2.389       .  S
Cd382       O387   2.399       .  S
Cd382       O383   2.471       .  S
Cd382       O386   2.468       .  S
Cd382       O384   2.411       .  S
C385        C514   1.481       .  S
C385        O389   1.269       .  A
O390        C393   1.278       .  A
O390       Cd395   2.488       .  S
C391        C434   1.489       .  S
C391        O400   1.269       .  A
C391        O396   1.278       .  A
O392        C398   1.278       .  A
O392       Cd395   2.474       .  S
C393        C574   1.490       .  S
C393        O401   1.270       .  A
C394        C454   1.477       .  S
C394        O399   1.277       .  A
C394        O397   1.269       .  A
Cd395       O402   2.388       .  S
Cd395       O401   2.389       .  S
Cd395       O400   2.403       .  S
Cd395       O396   2.490       .  S
Cd395       O399   2.478       .  S
Cd395       O397   2.386       .  S
C398        C547   1.488       .  S
C398        O402   1.269       .  A
C403        C404   1.403   1_565  A
C403        C408   1.397       .  A
C403        F421   1.358       .  S
C404        C409   1.488       .  S
C404        C405   1.407       .  A
C405        C406   1.402       .  A
C405        F410   1.358       .  S
C406        C407   1.411       .  A
C406        F422   1.355       .  S
C407        C408   1.414   1_545  A
C408        F411   1.357       .  S
C409        C412   1.408       .  A
C409        C416   1.405       .  A
C412        C413   1.401       .  A
C412        F417   1.358   1_545  S
C413        C414   1.409       .  A
C413        F419   1.357   1_545  S
C414        C415   1.412       .  A
C415        C416   1.399       .  A
C415        F418   1.358       .  S
C416        F420   1.358       .  S
C423        C424   1.409       .  A
C423        C428   1.404       .  A
C423        F441   1.358       .  S
C424        C429   1.492       .  S
C424        C425   1.404       .  A
C425        C426   1.400       .  A
C425        F430   1.358       .  S
C426        C427   1.414       .  A
C426        F442   1.358       .  S
C427        C428   1.409       .  A
C428        F431   1.357       .  S
C429        C432   1.405       .  A
C429        C436   1.410       .  A
C432        C433   1.399       .  A
C432        F437   1.358       .  S
C433        C434   1.411       .  A
C433        F439   1.358       .  S
C434        C435   1.408       .  A
C435        C436   1.404       .  A
C435        F438   1.357       .  S
C436        F440   1.357       .  S
C443        C444   1.403       .  A
C443        C448   1.397       .  A
C443        F461   1.358       .  S
C444        C449   1.481       .  S
C444        C445   1.408       .  A
C445        C446   1.399       .  A
C445        F450   1.358       .  S
C446        C447   1.406       .  A
C446        F462   1.358       .  S
C447        C448   1.408       .  A
C448        F451   1.358       .  S
C449        C452   1.407       .  A
C449        C456   1.404       .  A
C452        C453   1.404       .  A
C452        F457   1.358       .  S
C453        C454   1.407       .  A
C453        F459   1.357       .  S
C454        C455   1.407       .  A
C455        C456   1.394       .  A
C455        F458   1.358       .  S
C456        F460   1.358       .  S
C463        C464   1.402       .  A
C463        C468   1.397       .  A
C463        F481   1.358       .  S
C464        C469   1.478       .  S
C464        C465   1.405       .  A
C465        C466   1.401       .  A
C465        F470   1.358       .  S
C466        C467   1.408       .  A
C466        F482   1.357       .  S
C467        C468   1.410       .  A
C468        F471   1.358       .  S
C469        C472   1.405       .  A
C469        C476   1.402       .  A
C472        C473   1.401       .  A
C472        F477   1.358       .  S
C473        C474   1.409       .  A
C473        F479   1.358       .  S
C474        C475   1.412       .  A
C475        C476   1.397       .  A
C475        F478   1.358       .  S
C476        F480   1.358       .  S
C483        C484   1.402       .  A
C483        C488   1.397       .  A
C483        F501   1.358       .  S
C484        C489   1.483       .  S
C484        C485   1.407   1_655  A
C485        C486   1.404       .  A
C485        F490   1.358       .  S
C486        C487   1.409   1_455  A
C486        F502   1.357       .  S
C487        C488   1.411       .  A
C488        F491   1.358       .  S
C489        C492   1.407       .  A
C489        C496   1.403       .  A
C492        C493   1.401       .  A
C492        F497   1.358       .  S
C493        C494   1.407       .  A
C493        F499   1.358       .  S
C494        C495   1.410       .  A
C495        C496   1.399       .  A
C495        F498   1.358       .  S
C496        F500   1.358       .  S
C503        C504   1.405       .  A
C503        C508   1.401       .  A
C503        F521   1.358       .  S
C504        C509   1.479       .  S
C504        C505   1.401   1_545  A
C505        C506   1.396       .  A
C505        F510   1.358       .  S
C506        C507   1.413   1_565  A
C506        F522   1.357       .  S
C507        C508   1.411       .  A
C508        F511   1.357       .  S
C509        C512   1.403       .  A
C509        C516   1.406       .  A
C512        C513   1.397       .  A
C512        F517   1.358       .  S
C513        C514   1.410       .  A
C513        F519   1.358       .  S
C514        C515   1.407       .  A
C515        C516   1.401       .  A
C515        F518   1.357   1_545  S
C516        F520   1.358   1_545  S
C523        C524   1.403       .  A
C523        C528   1.400       .  A
C523        F541   1.358       .  S
C524        C529   1.486       .  S
C524        C525   1.406       .  A
C525        C526   1.401       .  A
C525        F530   1.358       .  S
C526        C527   1.412       .  A
C526        F542   1.357       .  S
C527        C528   1.416       .  A
C528        F531   1.358       .  S
C529        C532   1.408       .  A
C529        C536   1.402       .  A
C532        C533   1.407       .  A
C532        F537   1.358       .  S
C533        C534   1.410       .  A
C533        F539   1.358       .  S
C534        C535   1.412       .  A
C535        C536   1.395       .  A
C535        F538   1.358       .  S
C536        F540   1.358       .  S
C543        C544   1.403       .  A
C543        C548   1.396       .  A
C543        F561   1.358       .  S
C544        C549   1.486       .  S
C544        C545   1.408       .  A
C545        C546   1.403       .  A
C545        F550   1.358       .  S
C546        C547   1.409       .  A
C546        F562   1.358       .  S
C547        C548   1.413       .  A
C548        F551   1.358       .  S
C549        C552   1.407       .  A
C549        C556   1.402       .  A
C552        C553   1.403       .  A
C552        F557   1.358       .  S
C553        C554   1.412       .  A
C553        F559   1.357       .  S
C554        C555   1.416       .  A
C555        C556   1.396       .  A
C555        F558   1.357       .  S
C556        F560   1.358       .  S
C563        C564   1.404       .  A
C563        C568   1.400       .  A
C563        F581   1.358       .  S
C564        C569   1.478       .  S
C564        C565   1.402       .  A
C565        C566   1.399       .  A
C565        F570   1.358       .  S
C566        C567   1.411       .  A
C566        F582   1.357       .  S
C567        C568   1.410       .  A
C568        F571   1.358       .  S
C569        C572   1.399       .  A
C569        C576   1.405       .  A
C572        C573   1.395       .  A
C572        F577   1.359       .  S
C573        C574   1.414       .  A
C573        F579   1.358       .  S
C574        C575   1.411       .  A
C575        C576   1.405       .  A
C575        F578   1.357       .  S
C576        F580   1.358       .  S
C583        C584   1.404       .  A
C583        C588   1.397       .  A
C583        F601   1.358       .  S
C584        C589   1.481       .  S
C584        C585   1.407       .  A
C585        C586   1.402       .  A
C585        F590   1.358   1_655  S
C586        C587   1.406       .  A
C586        F602   1.358   1_655  S
C587        C588   1.407       .  A
C588        F591   1.358       .  S
C589        C592   1.407       .  A
C589        C596   1.404   1_655  A
C592        C593   1.401       .  A
C592        F597   1.358       .  S
C593        C594   1.408       .  A
C593        F599   1.358       .  S
C594        C595   1.408   1_655  A
C595        C596   1.397       .  A
C595        F598   1.358       .  S
C596        F600   1.358       .  S
C603        C604   1.402       .  A
C603        C608   1.396       .  A
C603        F621   1.358       .  S
C604        C609   1.476       .  S
C604        C605   1.403       .  A
C605        C606   1.399       .  A
C605        F610   1.358       .  S
C606        C607   1.412       .  A
C606        F622   1.357       .  S
C607        C608   1.411       .  A
C608        F611   1.358       .  S
C609        C612   1.404       .  A
C609        C616   1.402       .  A
C612        C613   1.400       .  A
C612        F617   1.358       .  S
C613        C614   1.408       .  A
C613        F619   1.357       .  S
C614        C615   1.412       .  A
C615        C616   1.396       .  A
C615        F618   1.358       .  S
C616        F620   1.359       .  S
C623        C624   1.405       .  A
C623        C628   1.396       .  A
C623        F641   1.358       .  S
C624        C629   1.485       .  S
C624        C625   1.410       .  A
C625        C626   1.401       .  A
C625        F630   1.358       .  S
C626        C627   1.403       .  A
C626        F642   1.357       .  S
C627        C628   1.408       .  A
C628        F631   1.359       .  S
C629        C632   1.406       .  A
C629        C636   1.409       .  A
C632        C633   1.398       .  A
C632        F637   1.358       .  S
C633        C634   1.405       .  A
C633        F639   1.358       .  S
C634        C635   1.404       .  A
C635        C636   1.402       .  A
C635        F638   1.358       .  S
C636        F640   1.358       .  S
