geometry optimzed in LAMMPS
_audit_creation_date              2020-11-30 
_audit_creation_method            'lammps2cif' 
_symmetry_space_group_name_H-M    'P1' 
_symmetry_Int_Tables_number       1 
_symmetry_cell_setting            triclinic 
loop_ 
_symmetry_equiv_pos_as_xyz 
  x,y,z 
_cell_length_a                    32.633910220835226 
_cell_length_b                    32.855605453569886 
_cell_length_c                    26.42347002249394 
_cell_angle_alpha                 90.04461470174678 
_cell_angle_beta                  90.01196709187725 
_cell_angle_gamma                 120.33376786017615 
loop_ 
_atom_site_label 
_atom_site_type_symbol 
_atom_site_fract_x 
_atom_site_fract_y 
_atom_site_fract_z 
_atom_site_charge 
O1          O  0.05977073  0.55062939  0.55287433    -0.71170
O2          O  0.00774563  0.44993278  0.44619892    -0.72150
O3          O  0.05981716  0.55042604  0.44593165    -0.60770
O4          O  0.00770369  0.45016605  0.55295787    -0.69180
O5          O  0.93951322  0.44987888  0.55291128    -0.68730
O6          O  0.99161483  0.55011472  0.44585029    -0.59980
O7          O  0.93954413  0.44962849  0.44596703    -0.72490
O8          O  0.99158835  0.55036364  0.55261875    -0.71270
Cu9        Cu  0.03611008  0.50023300  0.49949432     1.04560
Cu10       Cu  0.96321306  0.50005427  0.49932890     1.04330
C11         C  0.03390347  0.56685359  0.56898807     0.95030
C12         C  0.96541617  0.43340487  0.42986107     0.94170
C13         C  0.03394941  0.56656962  0.42960007     0.86320
C14         C  0.96537985  0.43372991  0.56923211     0.92590
O15         O  0.48691198  0.54795877  0.94705483    -0.71170
O16         O  0.44183516  0.44720352  0.05358921    -0.72150
O17         O  0.48674432  0.54753576  0.05417603    -0.60770
O18         O  0.44194510  0.44759536  0.94667581    -0.69180
O19         O  0.51177130  0.45125164  0.94661341    -0.68730
O20         O  0.55661925  0.55129415  0.05399296    -0.59980
O21         O  0.51172390  0.45099812  0.05371922    -0.72490
O22         O  0.55672353  0.55159084  0.94710438    -0.71270
Cu23       Cu  0.46186460  0.49733765  0.00037315     1.04560
Cu24       Cu  0.53669325  0.50151517  0.00035451     1.04330
C25         C  0.52948045  0.56612870  0.93083509     0.95030
C26         C  0.46915253  0.43277353  0.06992169     0.94170
C27         C  0.52929191  0.56565080  0.07047772     0.86320
C28         C  0.46924571  0.43318126  0.93025404     0.92590
O29         O  0.92542235  0.46386683  0.94615304    -0.71170
O30         O  0.99330656  0.43893874  0.05511121    -0.72150
O31         O  0.93192430  0.47698842  0.05241037    -0.60770
O32         O  0.98981785  0.42968670  0.94872290    -0.69180
O33         O  0.05131149  0.50221091  0.94005969    -0.68730
O34         O  0.99613762  0.54786226  0.04458646    -0.59980
O35         O  0.05782814  0.50955947  0.04702081    -0.72490
O36         O  0.98649451  0.53669869  0.93818250    -0.71270
Cu37       Cu  0.95804387  0.44986522  0.00091712     1.04560
Cu38       Cu  0.02511580  0.52671597  0.99217042     1.04330
C39         C  0.94445792  0.50430497  0.92554102     0.95030
C40         C  0.03581086  0.46870684  0.06769896     0.94170
C41         C  0.95561038  0.52079288  0.06425006     0.86320
C42         C  0.02983131  0.45861721  0.92844667     0.92590
N43         N  0.73020278  0.16524797  0.20498745    -0.25510
N44         N  0.73494202  0.12872680  0.19312035    -0.33370
C45         C  0.69860871  0.09900209  0.16366270     0.02830
C46         C  0.66924066  0.11744561  0.15631962     0.08850
C47         C  0.69044267  0.15963358  0.18282723    -0.04250
H48         H  0.69489967  0.06695782  0.14780538     0.09520
H49         H  0.67808962  0.18455709  0.18547037     0.10720
Cu50       Cu  0.79060351  0.11966669  0.21410735     0.44170
Cu51       Cu  0.77879037  0.22082364  0.25021034     0.41990
Cu52       Cu  0.88129079  0.20953445  0.28677235     0.43880
N53         N  0.84956456  0.11694611  0.23668581    -0.32900
N54         N  0.88378409  0.15074544  0.26388768    -0.27150
C55         C  0.91752325  0.13961751  0.27279943    -0.03250
C56         C  0.90347748  0.09677162  0.24995396     0.08960
C57         C  0.86037659  0.08323790  0.22737764     0.02760
H58         H  0.94970066  0.16107405  0.29419867     0.10410
H59         H  0.83852310  0.05141884  0.20584617     0.09490
N60         N  0.87168480  0.26477845  0.30740128    -0.34350
N61         N  0.83476006  0.26918647  0.29535696    -0.26530
C62         C  0.84016652  0.30871572  0.31718071    -0.01770
C63         C  0.88263407  0.33018188  0.34364858     0.06840
C64         C  0.90147800  0.30118223  0.33665464     0.04940
H65         H  0.81492411  0.32077375  0.31427607     0.10040
H66         H  0.93386069  0.30525268  0.35258765     0.08870
N67         N  0.26973064  0.83468428  0.20533475    -0.25510
N68         N  0.26488151  0.87110284  0.19333789    -0.33370
C69         C  0.30120857  0.90082175  0.16394591     0.02830
C70         C  0.33069900  0.88249378  0.15675840     0.08850
C71         C  0.30956883  0.84037003  0.18331103    -0.04250
H72         H  0.30478531  0.93274067  0.14794212     0.09520
H73         H  0.32198709  0.81550440  0.18601169     0.10720
Cu74       Cu  0.20895945  0.87993336  0.21380723     0.44170
Cu75       Cu  0.22103244  0.77903819  0.25036372     0.41990
Cu76       Cu  0.11765057  0.78947566  0.28508747     0.43880
N77         N  0.14962942  0.88230220  0.23562865    -0.32900
N78         N  0.11515860  0.84825803  0.26226996    -0.27150
C79         C  0.08129360  0.85926199  0.27093262    -0.03250
C80         C  0.09551606  0.90227990  0.24850817     0.08960
C81         C  0.13885620  0.91604824  0.22644270     0.02760
H82         H  0.04896085  0.83765587  0.29198089     0.10410
H83         H  0.16094401  0.94809838  0.20542729     0.09490
N84         N  0.12750440  0.73454085  0.30632436    -0.34350
N85         N  0.16475744  0.73045305  0.29500028    -0.26530
C86         C  0.15946386  0.69113063  0.31718245    -0.01770
C87         C  0.11674256  0.66947184  0.34314453     0.06840
C88         C  0.09762329  0.69814384  0.33545536     0.04940
H89         H  0.18497397  0.67936616  0.31490976     0.10040
H90         H  0.06499942  0.69388695  0.35087313     0.08870
C91         C  0.97493415  0.02450074  0.24859424     0.04060
C92         C  0.94949963  0.97458058  0.24832091     0.04060
C93         C  0.97407118  0.94947265  0.24789707     0.04060
C94         C  0.02418712  0.97468402  0.24809496     0.04060
C95         C  0.04961177  0.02458867  0.24835560     0.04060
C96         C  0.02506312  0.04971634  0.24843999     0.04060
N97         N  0.55979449  0.72762865  0.20601231    -0.25510
N98         N  0.60160522  0.73292448  0.19416799    -0.33370
C99         C  0.59529774  0.69691756  0.16483808     0.02830
C100        C  0.54714417  0.66711731  0.15749153     0.08850
C101        C  0.52561438  0.68778978  0.18391947    -0.04250
H102        H  0.62409710  0.69372127  0.14903973     0.09520
H103        H  0.48793650  0.67500751  0.18655299     0.10720
Cu104      Cu  0.66698241  0.78883428  0.21479347     0.44170
Cu105      Cu  0.55223919  0.77571791  0.25114448     0.41990
Cu106      Cu  0.66759959  0.87851740  0.28629021     0.43880
N107        N  0.72950372  0.84792578  0.23663176    -0.32900
N108        N  0.72976152  0.88192230  0.26352017    -0.27150
C109        C  0.77495466  0.91588859  0.27214335    -0.03250
C110        C  0.80424307  0.90228445  0.24942897     0.08960
C111        C  0.77451556  0.85913156  0.22723590     0.02760
H112        H  0.78557797  0.94792931  0.29328376     0.10410
H113        H  0.78471965  0.83752452  0.20592071     0.09490
N114        N  0.60227339  0.86862486  0.30740303    -0.34350
N115        N  0.56040553  0.83178269  0.29601392    -0.26530
C116        C  0.52635180  0.83739231  0.31823895    -0.01770
C117        C  0.54798561  0.87987419  0.34426572     0.06840
C118        C  0.59609194  0.89847836  0.33656746     0.04940
H119        H  0.48866464  0.81228175  0.31591961     0.10040
H120        H  0.62495856  0.93079999  0.35196609     0.08870
N121        N  0.27084622  0.44003785  0.29542285    -0.25510
N122        N  0.26595913  0.39915353  0.30944748    -0.33370
C123        C  0.30183606  0.40732254  0.34062810     0.02830
C124        C  0.33085954  0.45567433  0.34669396     0.08850
C125        C  0.30992680  0.47524290  0.31763520    -0.04250
H126        H  0.30573631  0.37973442  0.35811341     0.09520
H127        H  0.32218052  0.51239586  0.31299104     0.10720
Cu128      Cu  0.21070966  0.33288101  0.28772340     0.44170
Cu129      Cu  0.22411586  0.44612228  0.24695587     0.41990
Cu130      Cu  0.12263500  0.33177721  0.20911945     0.43880
N131        N  0.15206766  0.27013648  0.26294734    -0.32900
N132        N  0.11898642  0.26971518  0.23371382    -0.27150
C133        C  0.08554320  0.22459535  0.22395972    -0.03250
C134        C  0.09831398  0.19531449  0.24824882     0.08960
C135        C  0.14063745  0.22529933  0.27260330     0.02760
H136        H  0.05431327  0.21393951  0.20094467     0.10410
H137        H  0.16153781  0.21531040  0.29564084     0.09490
N138        N  0.13323989  0.39733783  0.18699170    -0.34350
N139        N  0.17005300  0.43874889  0.19947731    -0.26530
C140        C  0.16554509  0.47317240  0.17705469    -0.01770
C141        C  0.12359699  0.45244653  0.14977138     0.06840
C142        C  0.10430057  0.40434791  0.15682660     0.04940
H143        H  0.19079729  0.51052446  0.18063360     0.10040
H144        H  0.07200985  0.37615207  0.14041852     0.08870
N145        N  0.43914563  0.27084044  0.20510849    -0.25510
N146        N  0.39727876  0.26539706  0.19321668    -0.33370
C147        C  0.40343965  0.30131791  0.16389946     0.02830
C148        C  0.45156147  0.33123842  0.15659675     0.08850
C149        C  0.47322564  0.31071225  0.18304794    -0.04250
H150        H  0.37456242  0.30440318  0.14813006     0.09520
H151        H  0.51093040  0.32364231  0.18575248     0.10720
Cu152      Cu  0.33202089  0.20949520  0.21392674     0.44170
Cu153      Cu  0.44683269  0.22289776  0.25038030     0.41990
Cu154      Cu  0.33148384  0.12031816  0.28605755     0.43880
N155        N  0.26954664  0.15066331  0.23610930    -0.32900
N156        N  0.26929719  0.11685012  0.26327426    -0.27150
C157        C  0.22410598  0.08304631  0.27213073    -0.03250
C158        C  0.19482610  0.09658061  0.24927580     0.08960
C159        C  0.22454195  0.13950755  0.22675873     0.02760
H160        H  0.21348040  0.05116903  0.29352330     0.10410
H161        H  0.21433743  0.16100392  0.20526697     0.09490
N162        N  0.39686047  0.13025486  0.30703860    -0.34350
N163        N  0.43872353  0.16698817  0.29548274    -0.26530
C164        C  0.47279727  0.16139664  0.31771519    -0.01770
C165        C  0.45117386  0.11904103  0.34390735     0.06840
C166        C  0.40306065  0.10050296  0.33630085     0.04940
H167        H  0.51049153  0.18643188  0.31528860     0.10040
H168        H  0.37419840  0.06829838  0.35183921     0.08870
N169        N  0.73092689  0.55963998  0.29855948    -0.25510
N170        N  0.73536852  0.60086823  0.31009575    -0.33370
C171        C  0.69937022  0.59372287  0.34037529     0.02830
C172        C  0.67059466  0.54567698  0.34851132     0.08850
C173        C  0.69195962  0.52513451  0.32173134    -0.04250
H174        H  0.69527737  0.62184881  0.35613140     0.09520
H175        H  0.67995186  0.48788098  0.31903391     0.10720
Cu176      Cu  0.79019005  0.66640640  0.28657026     0.44170
Cu177      Cu  0.77822111  0.55319163  0.25136531     0.41990
Cu178      Cu  0.87854300  0.66749516  0.20862702     0.43880
N179        N  0.84832509  0.72905442  0.26140614    -0.32900
N180        N  0.88160885  0.72961702  0.23242350    -0.27150
C181        C  0.91478780  0.77481319  0.22262413    -0.03250
C182        C  0.90157083  0.80392193  0.24662504     0.08960
C183        C  0.85931079  0.77379193  0.27085443     0.02760
H184        H  0.94618605  0.78564238  0.19988100     0.10410
H185        H  0.83819927  0.78360982  0.29377586     0.09490
N186        N  0.86772940  0.60130048  0.18835621    -0.34350
N187        N  0.83162273  0.56025723  0.20302548    -0.26530
C188        C  0.83560790  0.52521883  0.18149085    -0.01770
C189        C  0.87628204  0.54500769  0.15223724     0.06840
C190        C  0.89563337  0.59334061  0.15744231     0.04940
H191        H  0.81061992  0.48799898  0.18670156     0.10040
H192        H  0.92721128  0.62100773  0.13944453     0.08870
N193        N  0.83470941  0.27002545  0.70410616    -0.25510
N194        N  0.87184431  0.26580075  0.69256186    -0.33370
C195        C  0.90168107  0.30214954  0.66334792     0.02830
C196        C  0.88266004  0.33092820  0.65583147     0.08850
C197        C  0.84004155  0.30938602  0.68198124    -0.04250
H198        H  0.93419916  0.30629663  0.64774556     0.09520
H199        H  0.81462089  0.32125315  0.68441695     0.10720
Cu200      Cu  0.88162717  0.21075057  0.71354223     0.44170
Cu201      Cu  0.77846924  0.22159524  0.74891931     0.41990
Cu202      Cu  0.79031094  0.12064187  0.78505825     0.43880
N203        N  0.88378684  0.15174250  0.73620049    -0.32900
N204        N  0.84927542  0.11785760  0.76294995    -0.27150
C205        C  0.85968933  0.08385001  0.77198524    -0.03250
C206        C  0.90284242  0.09726516  0.74970804     0.08960
C207        C  0.91734382  0.14035776  0.72730911     0.02760
H208        H  0.83746410  0.05184885  0.79301552     0.10410
H209        H  0.94963319  0.16173569  0.70610453     0.09490
N210        N  0.73452949  0.12949347  0.80578704    -0.34350
N211        N  0.72971508  0.16595757  0.79394485    -0.26530
C212        C  0.68987770  0.16022143  0.81602544    -0.01770
C213        C  0.66873019  0.11801000  0.84243551     0.06840
C214        C  0.69820731  0.09969610  0.83512076     0.04940
H215        H  0.67744987  0.18508433  0.81342729     0.10040
H216        H  0.69460763  0.06771067  0.85095952     0.08870
N217        N  0.16454365  0.73092346  0.70364569    -0.25510
N218        N  0.12769840  0.73540159  0.69145298    -0.33370
C219        C  0.09788601  0.69898341  0.66224031     0.02830
C220        C  0.11663747  0.66988775  0.65541626     0.08850
C221        C  0.15907368  0.69131570  0.68195624    -0.04250
H222        H  0.06559263  0.69500598  0.64616067     0.09520
H223        H  0.18426877  0.67920561  0.68495447     0.10720
Cu224      Cu  0.11841749  0.79090500  0.71163010     0.44170
Cu225      Cu  0.22044984  0.77945638  0.74871907     0.41990
Cu226      Cu  0.20898822  0.88127003  0.78399368     0.43880
N227        N  0.11609694  0.85002490  0.73336686    -0.32900
N228        N  0.15022317  0.88406070  0.76043576    -0.27150
C229        C  0.13946039  0.91795817  0.76879485    -0.03250
C230        C  0.09651018  0.90428064  0.74571009     0.08960
C231        C  0.08250297  0.86116034  0.72359943     0.02760
H232        H  0.16122562  0.94998875  0.79004202     0.10410
H233        H  0.05042834  0.83950484  0.70212391     0.09490
N234        N  0.26438966  0.87183521  0.80547045    -0.34350
N235        N  0.26895656  0.83515414  0.79385616    -0.26530
C236        C  0.30858621  0.84062582  0.81619563    -0.01770
C237        C  0.32991151  0.88287370  0.84257074     0.06840
C238        C  0.30074152  0.90151875  0.83495694     0.04940
H239        H  0.32077559  0.81556168  0.81374783     0.10040
H240        H  0.30462084  0.93369819  0.85061957     0.08870
C241        C  0.97376293  0.02448680  0.74875769     0.04060
C242        C  0.94898056  0.97506299  0.74608231     0.04060
C243        C  0.97438358  0.95097442  0.74457978     0.04060
C244        C  0.02436137  0.97595629  0.74583568     0.04060
C245        C  0.04916617  0.02543522  0.74850421     0.04060
C246        C  0.02370142  0.04948686  0.75035250     0.04060
N247        N  0.43890528  0.27121856  0.79471577    -0.25510
N248        N  0.39711428  0.26639316  0.80564109    -0.33370
C249        C  0.40335115  0.30240967  0.83491158     0.02830
C250        C  0.45144272  0.33172895  0.84318507     0.08850
C251        C  0.47299951  0.31076372  0.81734807    -0.04250
H252        H  0.37451618  0.30593257  0.85001992     0.09520
H253        H  0.51063202  0.32314438  0.81548932     0.10720
Cu254      Cu  0.33181468  0.21104550  0.78391754     0.44170
Cu255      Cu  0.44650837  0.22290217  0.75003132     0.41990
Cu256      Cu  0.33107605  0.12084199  0.71336382     0.43880
N257        N  0.26925757  0.15226418  0.76160960    -0.32900
N258        N  0.26892755  0.11803557  0.73510799    -0.27150
C259        C  0.22370158  0.08423673  0.72629128    -0.03250
C260        C  0.19447633  0.09820161  0.74847571     0.08960
C261        C  0.22427481  0.14138648  0.77055588     0.02760
H262        H  0.21300961  0.05201557  0.70547544     0.10410
H263        H  0.21413896  0.16318497  0.79159973     0.09490
N264        N  0.39645932  0.13027739  0.69322234    -0.34350
N265        N  0.43834505  0.16684270  0.70514613    -0.26530
C266        C  0.47243316  0.16106204  0.68327688    -0.01770
C267        C  0.45079839  0.11875904  0.65691785     0.06840
C268        C  0.40266402  0.10043590  0.66406422     0.04940
H269        H  0.51014356  0.18597528  0.68599389     0.10040
H270        H  0.37380712  0.06836711  0.64821139     0.08870
N271        N  0.27173723  0.43112255  0.70346193    -0.25510
N272        N  0.26043581  0.38746424  0.69202584    -0.33370
C273        C  0.29494089  0.38745020  0.66501184     0.02830
C274        C  0.33033389  0.43307206  0.65799204     0.08850
C275        C  0.31480215  0.46050025  0.68265542    -0.04250
H276        H  0.29394379  0.35599678  0.65098812     0.09520
H277        H  0.33334930  0.49857165  0.68544565     0.10720
Cu278      Cu  0.20078793  0.32676908  0.71129136     0.44170
Cu279      Cu  0.22588214  0.44468140  0.74821662     0.41990
Cu280      Cu  0.12134547  0.32913591  0.78888769     0.43880
N281        N  0.14494784  0.26549293  0.73635152    -0.32900
N282        N  0.11364488  0.26594379  0.76731921    -0.27150
C283        C  0.08097507  0.22143532  0.77931757    -0.03250
C284        C  0.09321851  0.19224429  0.75435201     0.08960
C285        C  0.13375428  0.22093720  0.72740656     0.02760
H286        H  0.05096170  0.21130622  0.80409347     0.10410
H287        H  0.15367867  0.21044427  0.70340882     0.09490
N288        N  0.13230387  0.39450194  0.80624389    -0.34350
N289        N  0.16839565  0.43635586  0.79359507    -0.26530
C290        C  0.16072242  0.46950533  0.81474599    -0.01770
C291        C  0.11787082  0.44692250  0.84113509     0.06840
C292        C  0.10139105  0.39958216  0.83472291     0.04940
H293        H  0.18458706  0.50717585  0.81150741     0.10040
H294        H  0.06959667  0.37019971  0.85035336     0.08870
N295        N  0.55995113  0.72832893  0.79573631    -0.25510
N296        N  0.60178579  0.73317084  0.80657208    -0.33370
C297        C  0.59559129  0.69723009  0.83591194     0.02830
C298        C  0.54751220  0.66796746  0.84431226     0.08850
C299        C  0.52592137  0.68888377  0.81848899    -0.04250
H300        H  0.62443949  0.69365202  0.85088697     0.09520
H301        H  0.48828324  0.67648432  0.81663845     0.10720
Cu302      Cu  0.66714862  0.78826757  0.78435221     0.44170
Cu303      Cu  0.55184540  0.77621838  0.75082805     0.41990
Cu304      Cu  0.66657505  0.87731041  0.71296955     0.43880
N305        N  0.72933223  0.84686335  0.76068965    -0.32900
N306        N  0.72898855  0.88054757  0.73385027    -0.27150
C307        C  0.77392380  0.91441114  0.72408270    -0.03250
C308        C  0.80374042  0.90110920  0.74596615     0.08960
C309        C  0.77457808  0.85821762  0.76891314     0.02760
H310        H  0.78401214  0.94628206  0.70290276     0.10410
H311        H  0.78532461  0.83699989  0.79011742     0.09490
N312        N  0.60134883  0.86818576  0.69327768    -0.34350
N313        N  0.55949337  0.83185701  0.70558857    -0.26530
C314        C  0.52537916  0.83770029  0.68385195    -0.01770
C315        C  0.54703707  0.87982436  0.65720430     0.06840
C316        C  0.59516651  0.89793745  0.66403240     0.04940
H317        H  0.48765379  0.81296976  0.68685147     0.10040
H318        H  0.62403500  0.92977876  0.64788204     0.08870
N319        N  0.73318371  0.56291260  0.70602996    -0.25510
N320        N  0.73978965  0.60464054  0.69272148    -0.33370
C321        C  0.70381928  0.59946578  0.66402638     0.02830
C322        C  0.67197344  0.55211693  0.65813472     0.08850
C323        C  0.69171564  0.52963297  0.68507439    -0.04250
H324        H  0.70209073  0.62880321  0.64798562     0.09520
H325        H  0.67709256  0.49197998  0.68886536     0.10720
Cu326      Cu  0.79519689  0.66982666  0.70997094     0.44170
Cu327      Cu  0.78261716  0.55585788  0.75208207     0.41990
Cu328      Cu  0.87742501  0.67528176  0.78934765     0.43880
N329        N  0.85030507  0.73375294  0.73146305    -0.32900
N330        N  0.88231577  0.73568277  0.76315029    -0.27150
C331        C  0.91522459  0.78078953  0.77180724    -0.03250
C332        C  0.90270401  0.80815432  0.74390614     0.08960
C333        C  0.86143472  0.77766862  0.71869703     0.02760
H334        H  0.94578343  0.79255086  0.79622152     0.10410
H335        H  0.84116430  0.78652404  0.69322462     0.09490
N336        N  0.87543146  0.61448273  0.80862895    -0.34350
N337        N  0.84259053  0.57072014  0.79704323    -0.26530
C338        C  0.85601958  0.54154580  0.81785663    -0.01770
C339        C  0.89928033  0.56910857  0.84272447     0.06840
C340        C  0.90998939  0.61466832  0.83581086     0.04940
H341        H  0.83608598  0.50347875  0.81492522     0.10040
H342        H  0.94082868  0.64619499  0.84997793     0.08870
O343        O  0.48703253  0.93877103  0.55386638    -0.71170
O344        O  0.44187806  0.99351983  0.44673784    -0.72150
O345        O  0.48736184  0.93884968  0.44682943    -0.60770
O346        O  0.44160623  0.99343653  0.55359873    -0.69180
O347        O  0.51132510  0.05996595  0.55398209    -0.68730
O348        O  0.55703828  0.00542536  0.44710237    -0.59980
O349        O  0.51154847  0.06010112  0.44691854    -0.72490
O350        O  0.55676612  0.00528574  0.55396908    -0.71270
Cu351      Cu  0.46199007  0.96386643  0.50024199     1.04560
Cu352      Cu  0.53665578  0.03497789  0.50049795     1.04330
C353        C  0.52952323  0.96345240  0.57028444     0.95030
C354        C  0.46905619  0.03539075  0.43049450     0.94170
C355        C  0.52992461  0.96357340  0.43068132     0.86320
C356        C  0.46875565  0.03524601  0.57011079     0.92590
O357        O  0.54959935  0.06023224  0.94605727    -0.71170
O358        O  0.44886716  0.00710168  0.05307200    -0.72150
O359        O  0.54982467  0.06003169  0.05298425    -0.60770
O360        O  0.44863814  0.00730008  0.94630601    -0.69180
O361        O  0.44944687  0.94011515  0.94588055    -0.68730
O362        O  0.55069672  0.99287829  0.05256085    -0.59980
O363        O  0.44971160  0.93993446  0.05285947    -0.72490
O364        O  0.55045942  0.99307324  0.94577782    -0.71270
Cu365      Cu  0.49913277  0.03597878  0.99961711     1.04560
Cu366      Cu  0.50017757  0.96417634  0.99925361     1.04330
C367        C  0.56634591  0.03502033  0.92955314     0.95030
C368        C  0.43298847  0.96517590  0.06934876     0.94170
C369        C  0.56664063  0.03476511  0.06908482     0.86320
C370        C  0.43265453  0.96540879  0.92978557     0.92590
O371        O  0.54888343  0.49726197  0.55935842    -0.71170
O372        O  0.44696959  0.45246781  0.45528832    -0.72150
O373        O  0.54728821  0.48934099  0.45237095    -0.60770
O374        O  0.44932554  0.46424983  0.56166379    -0.69180
O375        O  0.46313973  0.53733574  0.55329333    -0.68730
O376        O  0.55541650  0.56028432  0.44395143    -0.59980
O377        O  0.45567189  0.52365725  0.44706092    -0.72490
O378        O  0.56202209  0.57007557  0.55034921    -0.71270
Cu379      Cu  0.49756929  0.47318740  0.50748917     1.04560
Cu380      Cu  0.50958983  0.55036676  0.49834959     1.04330
C381        C  0.57220473  0.54088411  0.57075403     0.95030
C382        C  0.43439953  0.47979680  0.43541385     0.94170
C383        C  0.56699513  0.53003917  0.43133532     0.86320
C384        C  0.44077354  0.49704143  0.57417700     0.92590
C385        C  0.62808302  0.53124907  0.62705390    -0.14650
C386        C  0.61214486  0.55848976  0.60669674    -0.29830
H387        H  0.60967267  0.49357736  0.61952851     0.14370
H388        H  0.63000265  0.59592195  0.61492698     0.14940
C389        C  0.52404285  0.89962027  0.62531969    -0.14650
C390        C  0.54880665  0.94386093  0.60712229    -0.29830
H391        H  0.48678859  0.87719427  0.61567952     0.14370
H392        H  0.58564813  0.96652468  0.61799712     0.14940
C393        C  0.37317023  0.44538677  0.62804895    -0.14650
C394        C  0.40359213  0.48875232  0.61145715    -0.29830
H395        H  0.37759024  0.41622588  0.61582630     0.14370
H396        H  0.39869929  0.51800592  0.62194160     0.14940
C397        C  0.44927546  0.05475505  0.60684420    -0.14650
C398        C  0.47388185  0.09902640  0.62505383    -0.29830
H399        H  0.41243411  0.03201600  0.61760943     0.14370
H400        H  0.51111973  0.12154647  0.61545366     0.14940
C401        C  0.14349533  0.07287020  0.74879922    -0.11500
C402        C  0.10069267  0.05149084  0.74892493    -0.13050
C403        C  0.06875757  0.14217779  0.75514865    -0.11500
C404        C  0.04871905  0.10004083  0.75363042    -0.13050
C405        C  0.94896351  0.90037518  0.74249112    -0.11500
C406        C  0.92754902  0.85819528  0.74217247    -0.13050
C407        C  0.85468889  0.92704421  0.74560205    -0.11500
C408        C  0.89746960  0.94896647  0.74554514    -0.13050
C409        C  0.07136452  0.92958251  0.74515684    -0.11500
C410        C  0.05012807  0.95072758  0.74511849    -0.13050
C411        C  0.37279877  0.90223650  0.87469536    -0.14650
C412        C  0.39339822  0.94643327  0.89304792    -0.29830
H413        H  0.38686846  0.87948874  0.88427681     0.14370
H414        H  0.37998626  0.96944172  0.88234618     0.14940
C415        C  0.92737103  0.07140204  0.74959837    -0.11500
C416        C  0.94805829  0.04974485  0.74944108    -0.13050
C417        C  0.60546647  0.05418978  0.89270197    -0.14650
C418        C  0.62582389  0.09840543  0.87449719    -0.29830
H419        H  0.61900625  0.03132461  0.88180439     0.14370
H420        H  0.61158917  0.12098886  0.88421443     0.14940
C421        C  0.60476431  0.54521234  0.39313503    -0.14650
C422        C  0.62753488  0.52215901  0.38073971    -0.29830
H423        H  0.61651493  0.57962658  0.37659670     0.14370
H424        H  0.61568347  0.48706193  0.39542652     0.14940
C425        C  0.47422124  0.09934282  0.37588017    -0.14650
C426        C  0.44967534  0.05496341  0.39372732    -0.29830
H427        H  0.51137311  0.12195053  0.38582513     0.14370
H428        H  0.41292456  0.03215361  0.38262609     0.14940
C429        C  0.39409175  0.45839925  0.39983582    -0.14650
C430        C  0.37397943  0.48118112  0.37861028    -0.29830
H431        H  0.37942323  0.42110290  0.39223002     0.14370
H432        H  0.38884223  0.51870886  0.38516664     0.14940
C433        C  0.54942803  0.94401659  0.39402785    -0.14650
C434        C  0.52492513  0.89961400  0.37615589    -0.29830
H435        H  0.58619719  0.96683089  0.38305483     0.14370
H436        H  0.48776820  0.87700078  0.38602051     0.14940
C437        C  0.14386772  0.07124103  0.24897327    -0.11500
C438        C  0.10108121  0.05006830  0.24866057    -0.13050
C439        C  0.07276004  0.14417957  0.24830897    -0.11500
C440        C  0.05126479  0.10137081  0.24839814    -0.13050
C441        C  0.92677576  0.85503760  0.24686315    -0.11500
C442        C  0.94795945  0.89783284  0.24731523    -0.13050
C443        C  0.89801521  0.94905374  0.24862764    -0.11500
C444        C  0.85521806  0.92776677  0.24899041    -0.13050
C445        C  0.04962169  0.94917559  0.24818684    -0.11500
C446        C  0.07052906  0.92771921  0.24836079    -0.13050
C447        C  0.37356221  0.90195476  0.12463078    -0.14650
C448        C  0.39390989  0.94610281  0.10625181    -0.29830
H449        H  0.38776925  0.87932532  0.11501565     0.14370
H450        H  0.38039683  0.96900963  0.11706679     0.14940
C451        C  0.92854262  0.07140927  0.24960681    -0.11500
C452        C  0.94949975  0.05000287  0.24914211    -0.13050
C453        C  0.62631946  0.09796567  0.12425373    -0.14650
C454        C  0.60588317  0.05379885  0.10582860    -0.29830
H455        H  0.61210403  0.12060564  0.11475432     0.14370
H456        H  0.61941825  0.03087888  0.11647192     0.14940
C457        C  0.93712841  0.54237668  0.09966623    -0.14650
C458        C  0.89379826  0.51958193  0.12073509    -0.29830
H459        H  0.96031477  0.57971337  0.10719042     0.14370
H460        H  0.87063135  0.48200560  0.11433618     0.14940
C461        C  0.05807650  0.45281919  0.10525028    -0.14650
C462        C  0.10416927  0.47605007  0.11811927    -0.29830
H463        H  0.03500018  0.41794893  0.12089066     0.14370
H464        H  0.12776490  0.51158186  0.10437693     0.14940
C465        C  0.05157753  0.44076059  0.89244108    -0.14650
C466        C  0.09531137  0.46781936  0.87228932    -0.29830
H467        H  0.03116490  0.40336475  0.88404067     0.14370
H468        H  0.11542595  0.50544320  0.88004974     0.14940
C469        C  0.91601426  0.51315501  0.88839660    -0.14530
C470        C  0.92955911  0.55675702  0.87271638    -0.29830
H471        H  0.88156038  0.48395641  0.87726388     0.14370
H472        H  0.96338908  0.58587938  0.88560020     0.14940
C473        C  0.44984762  0.39363524  0.10655630    -0.14650
C474        C  0.47455339  0.37411782  0.12468052    -0.29830
H475        H  0.41301216  0.37932329  0.11738380     0.14370
H476        H  0.51178892  0.38903323  0.11503462     0.14940
C477        C  0.47446748  0.37441672  0.87546081    -0.14650
C478        C  0.44996259  0.39424748  0.89330765    -0.29830
H479        H  0.51154009  0.38890227  0.88563410     0.14370
H480        H  0.41327844  0.38031847  0.88205714     0.14940
C481        C  0.54859446  0.60460971  0.10738340    -0.14650
C482        C  0.52401910  0.62427892  0.12545782    -0.29830
H483        H  0.58536976  0.61872910  0.11838778     0.14370
H484        H  0.48683889  0.60956986  0.11563004     0.14940
C485        C  0.54889064  0.60529552  0.89421556    -0.14650
C486        C  0.52446043  0.62523455  0.87646646    -0.29830
H487        H  0.58559604  0.61926012  0.88307339     0.14370
H488        H  0.48737207  0.61072920  0.88653692     0.14940
C489        C  0.90196210  0.37308559  0.37530299    -0.14650
C490        C  0.94656601  0.39412619  0.39342716    -0.29830
H491        H  0.87883066  0.38683749  0.38471644     0.14370
H492        H  0.96995744  0.38103129  0.38284732     0.14940
C493        C  0.94655132  0.39465629  0.60587111    -0.14650
C494        C  0.90193189  0.37363448  0.62391515    -0.29830
H495        H  0.96999485  0.38169588  0.61669149     0.14370
H496        H  0.87873533  0.38723786  0.61422360     0.14940
C497        C  0.05274604  0.60608301  0.60547761    -0.14650
C498        C  0.09729800  0.62699835  0.62374106    -0.29830
H499        H  0.02939144  0.61923860  0.61599639     0.14370
H500        H  0.12038225  0.61317317  0.61440383     0.14940
C501        C  0.05279230  0.60565799  0.39297694    -0.14650
C502        C  0.09745371  0.62675189  0.37504155    -0.29830
H503        H  0.02932776  0.61857472  0.38209268     0.14370
H504        H  0.12067744  0.61320253  0.38482023     0.14940
loop_ 
_geom_bond_atom_site_label_1 
_geom_bond_atom_site_label_2 
_geom_bond_distance 
_geom_bond_site_symmetry_2 
_ccdc_geom_bond_type 
O1           Cu9   2.008       .  S
O1           C11   1.278       .  A
O2           Cu9   2.005       .  S
O2           C12   1.277   1_455  A
O3           Cu9   2.009       .  S
O3           C13   1.278       .  A
O4           Cu9   2.006       .  S
O4           C14   1.277   1_455  A
O5          Cu10   2.009       .  S
O5           C14   1.278       .  A
O6          Cu10   2.006       .  S
O6           C13   1.277   1_655  A
O7          Cu10   2.008       .  S
O7           C12   1.278       .  A
O8          Cu10   2.006       .  S
O8           C11   1.277   1_655  A
Cu9         Cu10   2.376   1_455  S
C11         C497   1.472       .  S
C12         C490   1.472       .  S
C13         C501   1.473       .  S
C14         C493   1.473       .  S
O15         Cu23   2.012   1_556  S
O15          C25   1.278       .  A
O16         Cu23   2.009       .  S
O16          C26   1.278       .  A
O17         Cu23   2.011       .  S
O17          C27   1.278       .  A
O18         Cu23   2.007   1_556  S
O18          C28   1.278       .  A
O19         Cu24   2.011   1_556  S
O19          C28   1.278       .  A
O20         Cu24   2.007       .  S
O20          C27   1.278       .  A
O21         Cu24   2.011       .  S
O21          C26   1.278       .  A
O22         Cu24   2.008   1_556  S
O22          C25   1.278       .  A
Cu23        Cu24   2.376       .  S
C25         C485   1.474       .  S
C26         C473   1.474       .  S
C27         C481   1.473       .  S
C28         C478   1.473       .  S
O29         Cu37   1.983   1_556  S
O29          C39   1.271       .  A
O30         Cu37   1.980       .  S
O30          C40   1.273   1_655  A
O31         Cu37   2.034       .  S
O31          C41   1.281       .  A
O32         Cu37   2.027   1_556  S
O32          C42   1.282   1_655  A
O33         Cu38   1.992       .  S
O33          C42   1.274       .  A
O34         Cu38   1.989   1_654  S
O34          C41   1.274       .  A
O35         Cu38   2.041   1_554  S
O35          C40   1.282       .  A
O36         Cu38   2.037   1_655  S
O36          C39   1.285       .  A
Cu37        Cu38   2.375   1_654  S
C39         C469   1.477       .  S
C40         C461   1.473       .  S
C41         C457   1.474       .  S
C42         C465   1.474       .  S
N43          N44   1.322       .  A
N43          C47   1.348       .  A
N43         Cu51   2.085       .  S
N44          C45   1.340       .  A
N44         Cu50   2.060       .  S
C45          C46   1.382       .  A
C45          H48   1.081       .  S
C46         C453   1.477       .  S
C46          C47   1.386       .  A
C47          H49   1.082       .  S
Cu50         N53   2.059       .  S
Cu51         N61   2.085       .  S
Cu52         N54   2.064       .  S
Cu52         N60   2.065       .  S
N53          N54   1.320       .  A
N53          C57   1.344       .  A
N54          C55   1.345       .  A
C55          C56   1.379       .  A
C55          H58   1.082       .  S
C56          C57   1.378       .  A
C56         C451   1.432       .  S
C57          H59   1.082       .  S
N60          N61   1.323       .  A
N60          C64   1.341       .  A
N61          C62   1.348       .  A
C62          C63   1.385       .  A
C62          H65   1.082       .  S
C63         C489   1.478       .  S
C63          C64   1.383       .  A
C64          H66   1.081       .  S
N67          N68   1.323       .  A
N67          C71   1.349       .  A
N67         Cu75   2.086       .  S
N68          C69   1.340       .  A
N68         Cu74   2.060       .  S
C69          C70   1.382       .  A
C69          H72   1.081       .  S
C70         C447   1.478       .  S
C70          C71   1.386       .  A
C71          H73   1.082       .  S
Cu74         N77   2.059       .  S
Cu75         N85   2.087       .  S
Cu76         N78   2.064       .  S
Cu76         N84   2.065       .  S
N77          N78   1.320       .  A
N77          C81   1.344       .  A
N78          C79   1.345       .  A
C79          C80   1.379       .  A
C79          H82   1.082       .  S
C80          C81   1.378       .  A
C80         C446   1.432       .  S
C81          H83   1.082       .  S
N84          N85   1.323       .  A
N84          C88   1.341       .  A
N85          C86   1.348       .  A
C86          C87   1.386       .  A
C86          H89   1.082       .  S
C87         C502   1.479       .  S
C87          C88   1.383       .  A
C88          H90   1.081       .  S
C91          C92   1.416   1_545  A
C91          C96   1.412   1_655  A
C91         C452   1.447       .  S
C92          C93   1.411       .  A
C92         C443   1.450       .  S
C93          C94   1.412   1_655  A
C93         C442   1.464       .  S
C94          C95   1.415   1_565  A
C94         C445   1.447       .  S
C95          C96   1.411       .  A
C95         C438   1.450       .  S
C96         C440   1.465       .  S
N97          N98   1.323       .  A
N97         C101   1.350       .  A
N97        Cu105   2.090       .  S
N98          C99   1.340       .  A
N98        Cu104   2.065       .  S
C99         C100   1.382       .  A
C99         H102   1.081       .  S
C100        C482   1.481       .  S
C100        C101   1.387       .  A
C101        H103   1.082       .  S
Cu104       N107   2.064       .  S
Cu105       N115   2.091       .  S
Cu106       N108   2.064       .  S
Cu106       N114   2.065       .  S
N107        N108   1.320       .  A
N107        C111   1.345       .  A
N108        C109   1.345       .  A
C109        C110   1.380       .  A
C109        H112   1.082       .  S
C110        C111   1.380       .  A
C110        C444   1.436       .  S
C111        H113   1.082       .  S
N114        N115   1.323       .  A
N114        C118   1.340       .  A
N115        C116   1.349       .  A
C116        C117   1.387       .  A
C116        H119   1.083       .  S
C117        C434   1.480       .  S
C117        C118   1.382       .  A
C118        H120   1.081       .  S
N121        N122   1.323       .  A
N121        C125   1.348       .  A
N121       Cu129   2.077       .  S
N122        C123   1.343       .  A
N122       Cu128   2.087       .  S
C123        C124   1.388       .  A
C123        H126   1.081       .  S
C124        C430   1.484       .  S
C124        C125   1.383       .  A
C125        H127   1.083       .  S
Cu128       N131   2.086       .  S
Cu129       N139   2.077       .  S
Cu130       N132   2.086       .  S
Cu130       N138   2.086       .  S
N131        N132   1.322       .  A
N131        C135   1.349       .  A
N132        C133   1.349       .  A
C133        C134   1.385       .  A
C133        H136   1.082       .  S
C134        C135   1.384       .  A
C134        C439   1.450       .  S
C135        H137   1.082       .  S
N138        N139   1.323       .  A
N138        C142   1.342       .  A
N139        C140   1.349       .  A
C140        C141   1.384       .  A
C140        H143   1.083       .  S
C141        C462   1.483       .  S
C141        C142   1.387       .  A
C142        H144   1.082       .  S
N145        N146   1.323       .  A
N145        C149   1.350       .  A
N145       Cu153   2.092       .  S
N146        C147   1.340       .  A
N146       Cu152   2.064       .  S
C147        C148   1.382       .  A
C147        H150   1.081       .  S
C148        C474   1.481       .  S
C148        C149   1.388       .  A
C149        H151   1.082       .  S
Cu152       N155   2.064       .  S
Cu153       N163   2.092       .  S
Cu154       N156   2.064       .  S
Cu154       N162   2.064       .  S
N155        N156   1.320       .  A
N155        C159   1.345       .  A
N156        C157   1.345       .  A
C157        C158   1.380       .  A
C157        H160   1.082       .  S
C158        C159   1.380       .  A
C158        C437   1.435       .  S
C159        H161   1.082       .  S
N162        N163   1.323       .  A
N162        C166   1.340       .  A
N163        C164   1.350       .  A
C164        C165   1.387       .  A
C164        H167   1.083       .  S
C165        C425   1.480       .  S
C165        C166   1.382       .  A
C166        H168   1.081       .  S
N169        N170   1.323       .  A
N169        C173   1.350       .  A
N169       Cu177   2.077       .  S
N170        C171   1.341       .  A
N170       Cu176   2.082       .  S
C171        C172   1.387       .  A
C171        H174   1.081       .  S
C172        C422   1.484       .  S
C172        C173   1.385       .  A
C173        H175   1.083       .  S
Cu176       N179   2.082       .  S
Cu177       N187   2.077       .  S
Cu178       N180   2.089       .  S
Cu178       N186   2.089       .  S
N179        N180   1.322       .  A
N179        C183   1.349       .  A
N180        C181   1.350       .  A
C181        C182   1.385       .  A
C181        H184   1.082       .  S
C182        C183   1.384       .  A
C182        C441   1.450       .  S
C183        H185   1.082       .  S
N186        N187   1.324       .  A
N186        C190   1.344       .  A
N187        C188   1.348       .  A
C188        C189   1.383       .  A
C188        H191   1.083       .  S
C189        C458   1.483       .  S
C189        C190   1.388       .  A
C190        H192   1.081       .  S
N193        N194   1.323       .  A
N193        C197   1.348       .  A
N193       Cu201   2.087       .  S
N194        C195   1.341       .  A
N194       Cu200   2.065       .  S
C195        C196   1.383       .  A
C195        H198   1.081       .  S
C196        C494   1.479       .  S
C196        C197   1.385       .  A
C197        H199   1.082       .  S
Cu200       N203   2.064       .  S
Cu201       N211   2.087       .  S
Cu202       N204   2.057       .  S
Cu202       N210   2.057       .  S
N203        N204   1.320       .  A
N203        C207   1.345       .  A
N204        C205   1.343       .  A
C205        C206   1.378       .  A
C205        H208   1.082       .  S
C206        C207   1.380       .  A
C206        C415   1.432       .  S
C207        H209   1.082       .  S
N210        N211   1.322       .  A
N210        C214   1.339       .  A
N211        C212   1.349       .  A
C212        C213   1.386       .  A
C212        H215   1.082       .  S
C213        C418   1.478       .  S
C213        C214   1.382       .  A
C214        H216   1.081       .  S
N217        N218   1.323       .  A
N217        C221   1.348       .  A
N217       Cu225   2.085       .  S
N218        C219   1.340       .  A
N218       Cu224   2.063       .  S
C219        C220   1.383       .  A
C219        H222   1.081       .  S
C220        C498   1.478       .  S
C220        C221   1.385       .  A
C221        H223   1.082       .  S
Cu224       N227   2.063       .  S
Cu225       N235   2.085       .  S
Cu226       N228   2.062       .  S
Cu226       N234   2.062       .  S
N227        N228   1.320       .  A
N227        C231   1.344       .  A
N228        C229   1.344       .  A
C229        C230   1.379       .  A
C229        H232   1.082       .  S
C230        C231   1.379       .  A
C230        C409   1.433       .  S
C231        H233   1.082       .  S
N234        N235   1.323       .  A
N234        C238   1.340       .  A
N235        C236   1.348       .  A
C236        C237   1.385       .  A
C236        H239   1.082       .  S
C237        C411   1.478       .  S
C237        C238   1.382       .  A
C238        H240   1.081       .  S
C241        C242   1.403   1_545  A
C241        C246   1.407   1_655  A
C241        C416   1.448       .  S
C242        C243   1.406       .  A
C242        C408   1.451       .  S
C243        C244   1.408   1_655  A
C243        C405   1.436       .  S
C244        C245   1.405   1_565  A
C244        C410   1.449       .  S
C245        C246   1.407       .  A
C245        C402   1.451       .  S
C246        C404   1.436       .  S
N247        N248   1.323       .  A
N247        C251   1.350       .  A
N247       Cu255   2.091       .  S
N248        C249   1.340       .  A
N248       Cu254   2.064       .  S
C249        C250   1.382       .  A
C249        H252   1.081       .  S
C250        C477   1.481       .  S
C250        C251   1.387       .  A
C251        H253   1.082       .  S
Cu254       N257   2.064       .  S
Cu255       N265   2.091       .  S
Cu256       N258   2.065       .  S
Cu256       N264   2.065       .  S
N257        N258   1.320       .  A
N257        C261   1.345       .  A
N258        C259   1.345       .  A
C259        C260   1.380       .  A
C259        H262   1.082       .  S
C260        C261   1.380       .  A
C260        C401   1.436       .  S
C261        H263   1.082       .  S
N264        N265   1.323       .  A
N264        C268   1.340       .  A
N265        C266   1.349       .  A
C266        C267   1.387       .  A
C266        H269   1.083       .  S
C267        C398   1.480       .  S
C267        C268   1.382       .  A
C268        H270   1.081       .  S
N271        N272   1.323       .  A
N271        C275   1.356       .  A
N271       Cu279   2.124       .  S
N272        C273   1.334       .  A
N272       Cu278   2.026       .  S
C273        C274   1.366       .  A
C273        H276   1.082       .  S
C274        C393   1.474       .  S
C274        C275   1.398       .  A
C275        H277   1.082       .  S
Cu278       N281   2.027       .  S
Cu279       N289   2.125       .  S
Cu280       N282   2.042       .  S
Cu280       N288   2.043       .  S
N281        N282   1.315       .  A
N281        C285   1.339       .  A
N282        C283   1.342       .  A
C283        C284   1.379       .  A
C283        H286   1.082       .  S
C284        C285   1.374       .  A
C284        C403   1.420       .  S
C285        H287   1.082       .  S
N288        N289   1.325       .  A
N288        C292   1.335       .  A
N289        C290   1.355       .  A
C290        C291   1.395       .  A
C290        H293   1.083       .  S
C291        C466   1.484       .  S
C291        C292   1.375       .  A
C292        H294   1.081       .  S
N295        N296   1.323       .  A
N295        C299   1.350       .  A
N295       Cu303   2.092       .  S
N296        C297   1.340       .  A
N296       Cu302   2.067       .  S
C297        C298   1.383       .  A
C297        H300   1.081       .  S
C298        C486   1.481       .  S
C298        C299   1.387       .  A
C299        H301   1.082       .  S
Cu302       N305   2.067       .  S
Cu303       N313   2.092       .  S
Cu304       N306   2.060       .  S
Cu304       N312   2.061       .  S
N305        N306   1.320       .  A
N305        C309   1.345       .  A
N306        C307   1.344       .  A
C307        C308   1.379       .  A
C307        H310   1.082       .  S
C308        C309   1.381       .  A
C308        C407   1.435       .  S
C309        H311   1.082       .  S
N312        N313   1.323       .  A
N312        C316   1.339       .  A
N313        C314   1.350       .  A
C314        C315   1.387       .  A
C314        H317   1.083       .  S
C315        C389   1.480       .  S
C315        C316   1.382       .  A
C316        H318   1.081       .  S
N319        N320   1.324       .  A
N319        C323   1.356       .  A
N319       Cu327   2.125       .  S
N320        C321   1.334       .  A
N320       Cu326   2.037       .  S
C321        C322   1.375       .  A
C321        H324   1.081       .  S
C322        C385   1.484       .  S
C322        C323   1.396       .  A
C323        H325   1.083       .  S
Cu326       N329   2.037       .  S
Cu327       N337   2.124       .  S
Cu328       N330   2.031       .  S
Cu328       N336   2.031       .  S
N329        N330   1.315       .  A
N329        C333   1.341       .  A
N330        C331   1.339       .  A
C331        C332   1.375       .  A
C331        H334   1.082       .  S
C332        C333   1.377       .  A
C332        C406   1.420       .  S
C333        H335   1.082       .  S
N336        N337   1.324       .  A
N336        C340   1.334       .  A
N337        C338   1.356       .  A
C338        C339   1.397       .  A
C338        H341   1.082       .  S
C339        C470   1.475       .  S
C339        C340   1.367       .  A
C340        H342   1.083       .  S
O343       Cu351   2.009       .  S
O343        C353   1.277       .  A
O344       Cu351   2.007       .  S
O344        C354   1.278   1_565  A
O345       Cu351   2.010       .  S
O345        C355   1.278       .  A
O346       Cu351   2.006       .  S
O346        C356   1.277   1_565  A
O347       Cu352   2.010       .  S
O347        C356   1.278       .  A
O348       Cu352   2.007       .  S
O348        C355   1.277   1_545  A
O349       Cu352   2.010       .  S
O349        C354   1.278       .  A
O350       Cu352   2.007       .  S
O350        C353   1.278   1_545  A
Cu351      Cu352   2.376   1_565  S
C353        C390   1.472       .  S
C354        C426   1.473       .  S
C355        C433   1.473       .  S
C356        C397   1.472       .  S
O357       Cu365   2.007       .  S
O357        C367   1.277       .  A
O358       Cu365   2.004   1_554  S
O358        C368   1.277   1_545  A
O359       Cu365   2.007   1_554  S
O359        C369   1.277       .  A
O360       Cu365   2.004       .  S
O360        C370   1.277   1_545  A
O361       Cu366   2.007       .  S
O361        C370   1.278       .  A
O362       Cu366   2.004   1_554  S
O362        C369   1.277   1_565  A
O363       Cu366   2.008   1_554  S
O363        C368   1.278       .  A
O364       Cu366   2.005       .  S
O364        C367   1.277   1_565  A
Cu365      Cu366   2.377   1_545  S
C367        C417   1.471       .  S
C368        C448   1.471       .  S
C369        C454   1.471       .  S
C370        C412   1.471       .  S
O371       Cu379   1.992       .  S
O371        C381   1.273       .  A
O372       Cu379   1.989       .  S
O372        C382   1.274       .  A
O373       Cu379   2.042       .  S
O373        C383   1.282       .  A
O374       Cu379   2.037       .  S
O374        C384   1.285       .  A
O375       Cu380   1.984       .  S
O375        C384   1.271       .  A
O376       Cu380   1.979       .  S
O376        C383   1.273       .  A
O377       Cu380   2.035       .  S
O377        C382   1.281       .  A
O378       Cu380   2.028       .  S
O378        C381   1.282       .  A
Cu379      Cu380   2.375       .  S
C381        C386   1.474       .  S
C382        C429   1.474       .  S
C383        C421   1.472       .  S
C384        C394   1.478       .  S
C385        C386   1.353       .  D
C385        H387   1.087       .  S
C386        H388   1.084       .  S
C389        C390   1.346       .  D
C389        H391   1.087       .  S
C390        H392   1.085       .  S
C393        C394   1.334       .  D
C393        H395   1.087       .  S
C394        H396   1.087       .  S
C397        C398   1.346       .  D
C397        H399   1.085       .  S
C398        H400   1.087       .  S
C401        C402   1.206       .  T
C403        C404   1.196       .  T
C405        C406   1.196       .  T
C407        C408   1.205       .  T
C409        C410   1.204       .  T
C411        C412   1.345       .  D
C411        H413   1.086       .  S
C412        H414   1.085       .  S
C415        C416   1.203       .  T
C417        C418   1.345       .  D
C417        H419   1.085       .  S
C418        H420   1.086       .  S
C421        C422   1.342       .  D
C421        H423   1.086       .  S
C422        H424   1.086       .  S
C425        C426   1.346       .  D
C425        H427   1.087       .  S
C426        H428   1.085       .  S
C429        C430   1.343       .  D
C429        H431   1.085       .  S
C430        H432   1.087       .  S
C433        C434   1.346       .  D
C433        H435   1.085       .  S
C434        H436   1.087       .  S
C437        C438   1.205       .  T
C439        C440   1.214       .  T
C441        C442   1.214       .  T
C443        C444   1.205       .  T
C445        C446   1.203       .  T
C447        C448   1.345       .  D
C447        H449   1.086       .  S
C448        H450   1.085       .  S
C451        C452   1.203       .  T
C453        C454   1.345       .  D
C453        H455   1.086       .  S
C454        H456   1.085       .  S
C457        C458   1.342       .  D
C457        H459   1.086       .  S
C458        H460   1.087       .  S
C461        C462   1.342       .  D
C461        H463   1.086       .  S
C462        H464   1.086       .  S
C465        C466   1.353       .  D
C465        H467   1.084       .  S
C466        H468   1.087       .  S
C469        C470   1.334       .  D
C469        H471   1.087       .  S
C470        H472   1.087       .  S
C473        C474   1.347       .  D
C473        H475   1.085       .  S
C474        H476   1.087       .  S
C477        C478   1.346       .  D
C477        H479   1.087       .  S
C478        H480   1.085       .  S
C481        C482   1.346       .  D
C481        H483   1.085       .  S
C482        H484   1.087       .  S
C485        C486   1.346       .  D
C485        H487   1.085       .  S
C486        H488   1.087       .  S
C489        C490   1.345       .  D
C489        H491   1.086       .  S
C490        H492   1.085       .  S
C493        C494   1.345       .  D
C493        H495   1.085       .  S
C494        H496   1.086       .  S
C497        C498   1.345       .  D
C497        H499   1.085       .  S
C498        H500   1.086       .  S
C501        C502   1.345       .  D
C501        H503   1.085       .  S
C502        H504   1.086       .  S
