geometry optimzed in LAMMPS
_audit_creation_date              2020-11-30 
_audit_creation_method            'lammps2cif' 
_symmetry_space_group_name_H-M    'P1' 
_symmetry_Int_Tables_number       1 
_symmetry_cell_setting            triclinic 
loop_ 
_symmetry_equiv_pos_as_xyz 
  x,y,z 
_cell_length_a                    40.60615845881202 
_cell_length_b                    40.617840240589096 
_cell_length_c                    36.72812915924081 
_cell_angle_alpha                 89.75868011682213 
_cell_angle_beta                  89.87558271577274 
_cell_angle_gamma                 88.6984221398123 
loop_ 
_atom_site_label 
_atom_site_type_symbol 
_atom_site_fract_x 
_atom_site_fract_y 
_atom_site_fract_z 
_atom_site_charge 
C1          C  0.11647091  0.00510207  0.21348682     0.02600
C2          C  0.15098257  0.50272014  0.21412682    -0.13550
C3          C  0.16882903  0.50682268  0.24686934     0.00100
C4          C  0.15042375  0.51180198  0.27930960    -0.12080
C5          C  0.11588840  0.01169679  0.27919515     0.02590
C6          C  0.09917857  0.00912455  0.24612806    -0.11500
H7          H  0.16321442  0.49672372  0.18886929     0.08180
H8          H  0.16224576  0.51489997  0.30524857     0.05710
H9          H  0.07246527  0.00973452  0.24589347     0.05560
C10         C  0.25918092  0.50410167  0.21482755     0.02600
C11         C  0.22463377  0.50677316  0.21460783    -0.13550
C12         C  0.20609048  0.50509477  0.24728427     0.00100
C13         C  0.22380864  0.50162174  0.28031770    -0.12080
C14         C  0.25829357  0.50032130  0.28067570     0.02590
C15         C  0.27578623  0.50118240  0.24800321    -0.11500
H16         H  0.21283654  0.50997410  0.18854333     0.08180
H17         H  0.21157051  0.49936650  0.30624126     0.05710
H18         H  0.30248244  0.99992838  0.24847182     0.05560
C19         C  0.43448745  0.18099606  0.21373244     0.02600
C20         C  0.43747880  0.16369494  0.24655897    -0.13550
C21         C  0.44018977  0.18047952  0.27941177     0.00040
C22         C  0.44088251  0.21494443  0.27946672    -0.12080
C23         C  0.43656072  0.23335613  0.24689614     0.02590
C24         C  0.43266073  0.21554247  0.21414733    -0.11500
H25         H  0.43771041  0.13699047  0.24659536     0.08180
H26         H  0.44454490  0.22664721  0.30538543     0.05710
H27         H  0.42743367  0.22788437  0.18870474     0.05560
C28         C  0.43681414  0.32364564  0.21469639     0.02600
C29         C  0.43870959  0.28907854  0.21452618    -0.13550
C30         C  0.43569802  0.27058739  0.24715316     0.00100
C31         C  0.43197644  0.28831901  0.28008536    -0.12080
C32         C  0.43238757  0.32275836  0.28049471     0.02590
C33         C  0.43445442  0.34027840  0.24786128    -0.11500
H34         H  0.44240123  0.27724331  0.18856183     0.08180
H35         H  0.42886197  0.27609678  0.30593110     0.05710
H36         H  0.43451201  0.36696948  0.24832884     0.05560
N37         N  0.00751126  0.01737974  0.03959144    -0.06650
N38         N  0.02410780  0.02811561  0.06786238    -0.58770
N39         N  0.00871010  0.48675142  0.45455830    -0.06330
N40         N  0.02677835  0.47616580  0.42685550    -0.60900
N41         N  0.00850655  0.01913176  0.45576833    -0.05930
N42         N  0.02653078  0.03116588  0.42906012    -0.58750
N43         N  0.00847789  0.48499461  0.03870169    -0.05610
N44         N  0.02573411  0.47305174  0.06639619    -0.61250
C45         C  0.03504929  0.00020842  0.08458362     0.95520
C46         C  0.03774382  0.00410983  0.41112579     0.95300
N47         N  0.42210799  0.43137883  0.45484955    -0.06840
N48         N  0.41059550  0.41306303  0.42837004    -0.59350
N49         N  0.45509855  0.43035363  0.03796092    -0.04960
N50         N  0.46685539  0.41211888  0.06502310    -0.60600
N51         N  0.42271004  0.43092503  0.03852773    -0.06870
N52         N  0.41178716  0.41319503  0.06602361    -0.59620
N53         N  0.45449069  0.43122409  0.45418292    -0.04600
N54         N  0.46560697  0.41259609  0.42724029    -0.60690
Mn55       Mn  0.48257840  0.45755445  0.49613181     1.18440
C56         C  0.43795506  0.40146603  0.41119960     0.97610
C57         C  0.43957810  0.40143328  0.08224587     0.98270
N58         N  0.45241773  0.07359740  0.45606676    -0.06890
N59         N  0.46375619  0.09124020  0.42870464    -0.63200
N60         N  0.41901810  0.07260575  0.03930981    -0.05690
N61         N  0.40677109  0.08943554  0.06704767    -0.63870
N62         N  0.45140307  0.07235234  0.04007113    -0.06390
N63         N  0.46184790  0.08904139  0.06842369    -0.63460
N64         N  0.42003536  0.07345938  0.45547399    -0.05290
N65         N  0.40872416  0.09105108  0.42771401    -0.64150
Mn66       Mn  0.48075222  0.04643877  0.49797487     1.10660
C67         C  0.43624809  0.10196663  0.41113587     0.98830
C68         C  0.43372385  0.09924220  0.08523825     0.98910
N69         N  0.36692570  0.48590818  0.03906538    -0.06400
N70         N  0.35015999  0.47439986  0.06699002    -0.61770
N71         N  0.36603619  0.01867073  0.45493184    -0.05720
N72         N  0.34766391  0.02996418  0.42780336    -0.58500
N73         N  0.36675960  0.48629010  0.45513918    -0.07030
N74         N  0.34904924  0.47489565  0.42809138    -0.61340
N75         N  0.36568141  0.01828505  0.03874280    -0.06020
N76         N  0.34790905  0.02949743  0.06636933    -0.58530
Mn77       Mn  0.39390322  0.45794130  0.49695790     1.20190
Mn78       Mn  0.39188928  0.04659644  0.49696223     1.10090
Cl79       Cl  0.43730627  0.00211849  0.49692577    -0.86500
C80         C  0.33847625  0.00184659  0.08382003     0.95840
C81         C  0.33714254  0.00237298  0.41129923     0.95630
C82         C  0.40695508  0.36667067  0.36771617    -0.26850
C83         C  0.43721028  0.37955527  0.37878974    -0.14920
C84         C  0.46581737  0.37187913  0.35820902     0.35710
C85         C  0.46335986  0.35267111  0.32672708    -0.26300
C86         C  0.43306732  0.34071906  0.31529795    -0.15540
C87         C  0.40451764  0.34722521  0.33638860     0.36790
N88         N  0.37264512  0.33545209  0.32646107    -0.89790
H89         H  0.38478473  0.37200680  0.38327483     0.17910
H90         H  0.48517885  0.34744555  0.31049292     0.17900
N91         N  0.49712035  0.38442925  0.36855143    -0.88820
H92         H  0.36516439  0.31929587  0.34695221     0.35270
H93         H  0.37350954  0.32195667  0.30236135     0.40370
H94         H  0.49507269  0.40987278  0.36529491     0.39990
H95         H  0.01566700  0.37632289  0.35070650     0.34880
C96         C  0.46356664  0.33863591  0.15576514    -0.26850
C97         C  0.43718805  0.34267702  0.18018373    -0.14920
C98         C  0.41148083  0.36525767  0.17172904     0.35710
C99         C  0.41280059  0.38376635  0.13951725    -0.26300
C100        C  0.43962900  0.38065080  0.11553633    -0.15540
C101        C  0.46522605  0.35750780  0.12378931     0.36790
N102        N  0.49278836  0.35201896  0.10002186    -0.89790
H103        H  0.48333414  0.32113208  0.16193975     0.17910
H104        H  0.39280736  0.40095688  0.13344914     0.17900
N105        N  0.38370802  0.36908849  0.19559098    -0.88820
H106        H  0.50619808  0.37361716  0.09834928     0.35270
H107        H  0.48401141  0.34607886  0.07418107     0.40370
H108        H  0.36245710  0.36386527  0.18087383     0.39990
H109        H  0.38209538  0.39373708  0.20363039     0.34880
C110        C  0.46583357  0.13856089  0.36809537    -0.26850
C111        C  0.43659573  0.12274168  0.37777157    -0.14920
C112        C  0.40859327  0.12672508  0.35519798     0.35710
C113        C  0.41061302  0.14625768  0.32368034    -0.26300
C114        C  0.43990220  0.16167421  0.31392763    -0.15540
C115        C  0.46788990  0.15796402  0.33654361     0.36790
N116        N  0.49897438  0.17242632  0.32793040    -0.89790
H117        H  0.48750760  0.13570178  0.38507901     0.17910
H118        H  0.38925869  0.14917144  0.30619336     0.17900
N119        N  0.37839040  0.11055747  0.36379103    -0.88820
H120        H  0.00385639  0.18973780  0.34808603     0.35270
H121        H  0.49831424  0.18506159  0.30315671     0.40370
H122        H  0.38271855  0.08522373  0.36092717     0.39990
H123        H  0.35999737  0.11700520  0.34502148     0.34880
C124        C  0.40863522  0.13844093  0.17563653    -0.26850
C125        C  0.43278502  0.16233057  0.17922826    -0.14920
C126        C  0.45714874  0.16522793  0.15203726     0.35710
C127        C  0.45679021  0.14403082  0.12190433    -0.26300
C128        C  0.43279974  0.11987640  0.11837720    -0.15540
C129        C  0.40869355  0.11659756  0.14619237     0.36790
N130        N  0.38493966  0.09078559  0.14671449    -0.89790
H131        H  0.39032333  0.13575197  0.19691080     0.17910
H132        H  0.47537023  0.14647597  0.10089608     0.17900
N133        N  0.48303946  0.18853451  0.15588299    -0.88820
H134        H  0.38757575  0.07816144  0.17145536     0.35270
H135        H  0.39003533  0.07299573  0.12707120     0.40370
H136        H  0.47263712  0.21209010  0.15244999     0.39990
H137        H  0.50038049  0.18562203  0.13498914     0.34880
C138        C  0.31453684  0.47298320  0.35800801    -0.26850
C139        C  0.31549117  0.00188347  0.37885408    -0.14920
C140        C  0.29588005  0.02950150  0.36831380     0.35710
C141        C  0.27664066  0.02782362  0.33664437    -0.26300
C142        C  0.27646056  0.99922321  0.31543283    -0.15540
C143        C  0.29536786  0.47127991  0.32646080     0.36790
N144        N  0.29540099  0.44071975  0.30680737    -0.89790
H145        H  0.32915573  0.45150147  0.36598755     0.17910
H146        H  0.26208163  0.04915145  0.32803385     0.17900
N147        N  0.29542272  0.05907931  0.38968622    -0.88820
H148        H  0.31897745  0.43691123  0.29590099     0.35270
H149        H  0.27893143  0.44140995  0.28504229     0.40370
H150        H  0.28465922  0.05350701  0.41479006     0.39990
H151        H  0.28033582  0.07723640  0.37762596     0.34880
C152        C  0.30131390  0.97755482  0.17478481    -0.26850
C153        C  0.27835512  0.00338742  0.18043527    -0.14920
C154        C  0.27505236  0.52847942  0.15403608     0.35710
C155        C  0.29494448  0.02755487  0.12275700    -0.26300
C156        C  0.31798339  0.00177049  0.11714267    -0.15540
C157        C  0.32125521  0.97650732  0.14351540     0.36790
N158        N  0.34532049  0.95034732  0.13899017    -0.89790
H159        H  0.30387255  0.95823699  0.19510227     0.17910
H160        H  0.29226422  0.54707524  0.10270539     0.17900
N161        N  0.25215491  0.55537661  0.15932625    -0.88820
H162        H  0.34421705  0.93363558  0.16066883     0.35270
H163        H  0.36859884  0.96079156  0.14007982     0.40370
H164        H  0.23583017  0.55591922  0.13734067     0.39990
H165        H  0.26527333  0.57722512  0.15890873     0.34880
C166        C  0.08024749  0.03165369  0.37304181    -0.26850
C167        C  0.05882228  0.00525836  0.37803350    -0.14920
C168        C  0.05700701  0.98105703  0.35069954     0.35710
C169        C  0.07568895  0.98415449  0.31882877    -0.26300
C170        C  0.09694136  0.01043106  0.31373667    -0.15540
C171        C  0.09965385  0.03429076  0.34130455     0.36790
N172        N  0.12166449  0.56121974  0.33678130    -0.89790
H173        H  0.08191042  0.05022790  0.39400212     0.17910
H174        H  0.07403169  0.96555591  0.29786450     0.17900
N175        N  0.03566181  0.95370292  0.35482382    -0.88820
H176        H  0.12083846  0.07650771  0.35961409     0.35270
H177        H  0.11319096  0.07541054  0.31476151     0.40370
H178        H  0.04621269  0.93817399  0.37457166     0.39990
H179        H  0.03508779  0.43992082  0.33084808     0.34880
C180        C  0.07985355  0.02421099  0.12047979    -0.26850
C181        C  0.05590934  0.99991502  0.11763724    -0.14920
C182        C  0.05268531  0.47661398  0.14632194     0.35710
C183        C  0.07419113  0.47780038  0.17609915    -0.26300
C184        C  0.09784302  0.00228051  0.17898542    -0.15540
C185        C  0.10082374  0.02570663  0.15079676     0.36790
N186        N  0.12397147  0.05183297  0.15378316    -0.89790
H187        H  0.08225510  0.04219875  0.09881029     0.17910
H188        H  0.07149001  0.46014883  0.19807327     0.17900
N189        N  0.02724862  0.45248017  0.14738760    -0.88820
H190        H  0.12123828  0.06836871  0.13204558     0.35270
H191        H  0.14762054  0.04143600  0.15124323     0.40370
H192        H  0.01004283  0.95610893  0.12672735     0.39990
H193        H  0.01387056  0.95610361  0.17146988     0.34880
C194        C  0.11647091  0.00510209  0.71348683     0.02600
C195        C  0.15098257  0.50272014  0.71412683    -0.13550
C196        C  0.16882903  0.50682269  0.74686934     0.00100
C197        C  0.15042376  0.51180199  0.77930961    -0.12080
C198        C  0.11588841  0.01169681  0.77919515     0.02590
C199        C  0.09917857  0.00912457  0.74612806    -0.11500
H200        H  0.16321442  0.49672373  0.68886930     0.08180
H201        H  0.16224577  0.51490000  0.80524857     0.05710
H202        H  0.07246527  0.00973454  0.74589348     0.05560
C203        C  0.25918092  0.50410168  0.71482755     0.02600
C204        C  0.22463377  0.50677318  0.71460783    -0.13550
C205        C  0.20609049  0.50509478  0.74728427     0.00100
C206        C  0.22380864  0.50162175  0.78031770    -0.12080
C207        C  0.25829358  0.50032130  0.78067570     0.02590
C208        C  0.27578624  0.50118241  0.74800321    -0.11500
H209        H  0.21283654  0.50997412  0.68854333     0.08180
H210        H  0.21157051  0.49936650  0.80624126     0.05710
H211        H  0.30248244  0.99992838  0.74847181     0.05560
C212        C  0.43448745  0.18099605  0.71373244     0.02600
C213        C  0.43747880  0.16369494  0.74655898    -0.13550
C214        C  0.44018977  0.18047952  0.77941177     0.00040
C215        C  0.44088251  0.21494443  0.77946672    -0.12080
C216        C  0.43656071  0.23335613  0.74689613     0.02590
C217        C  0.43266072  0.21554247  0.71414733    -0.11500
H218        H  0.43771041  0.13699047  0.74659536     0.08180
H219        H  0.44454490  0.22664721  0.80538543     0.05710
H220        H  0.42743366  0.22788437  0.68870474     0.05560
C221        C  0.43681413  0.32364564  0.71469639     0.02600
C222        C  0.43870958  0.28907854  0.71452618    -0.13550
C223        C  0.43569801  0.27058739  0.74715316     0.00100
C224        C  0.43197643  0.28831902  0.78008536    -0.12080
C225        C  0.43238756  0.32275837  0.78049470     0.02590
C226        C  0.43445440  0.34027840  0.74786127    -0.11500
H227        H  0.44240122  0.27724331  0.68856183     0.08180
H228        H  0.42886195  0.27609678  0.80593110     0.05710
H229        H  0.43451200  0.36696948  0.74832883     0.05560
N230        N  0.00751125  0.01737975  0.53959144    -0.06650
N231        N  0.02410780  0.02811562  0.56786238    -0.58770
N232        N  0.00871009  0.48675140  0.95455829    -0.06330
N233        N  0.02677834  0.47616579  0.92685550    -0.60900
N234        N  0.00850655  0.01913175  0.95576833    -0.05930
N235        N  0.02653078  0.03116588  0.92906012    -0.58750
N236        N  0.00847790  0.48499461  0.53870169    -0.05610
N237        N  0.02573411  0.47305174  0.56639620    -0.61250
C238        C  0.03504929  0.00020843  0.58458362     0.95520
C239        C  0.03774383  0.00410983  0.91112578     0.95300
N240        N  0.42210799  0.43137882  0.95484955    -0.06840
N241        N  0.41059550  0.41306302  0.92837005    -0.59350
N242        N  0.45509855  0.43035363  0.53796092    -0.04960
N243        N  0.46685538  0.41211888  0.56502310    -0.60600
N244        N  0.42271004  0.43092503  0.53852772    -0.06870
N245        N  0.41178715  0.41319503  0.56602360    -0.59620
N246        N  0.45449069  0.43122408  0.95418292    -0.04600
N247        N  0.46560696  0.41259609  0.92724029    -0.60690
Mn248      Mn  0.48257840  0.45755445  0.99613181     1.18440
C249        C  0.43795506  0.40146603  0.91119960     0.97610
C250        C  0.43957809  0.40143328  0.58224586     0.98270
N251        N  0.45241773  0.07359740  0.95606676    -0.06890
N252        N  0.46375619  0.09124020  0.92870464    -0.63200
N253        N  0.41901810  0.07260575  0.53930981    -0.05690
N254        N  0.40677109  0.08943554  0.56704767    -0.63870
N255        N  0.45140307  0.07235234  0.54007113    -0.06390
N256        N  0.46184790  0.08904139  0.56842369    -0.63460
N257        N  0.42003536  0.07345938  0.95547399    -0.05290
N258        N  0.40872416  0.09105108  0.92771401    -0.64150
Mn259      Mn  0.48075221  0.04643876  0.99797487     1.10660
C260        C  0.43624809  0.10196664  0.91113587     0.98830
C261        C  0.43372385  0.09924220  0.58523825     0.98910
N262        N  0.36692570  0.48590819  0.53906538    -0.06400
N263        N  0.35015998  0.47439987  0.56699002    -0.61770
N264        N  0.36603618  0.01867073  0.95493184    -0.05720
N265        N  0.34766391  0.02996418  0.92780337    -0.58500
N266        N  0.36675960  0.48629009  0.95513918    -0.07030
N267        N  0.34904924  0.47489565  0.92809138    -0.61340
N268        N  0.36568142  0.01828504  0.53874280    -0.06020
N269        N  0.34790905  0.02949743  0.56636933    -0.58530
Mn270      Mn  0.39390322  0.45794129  0.99695791     1.20190
Mn271      Mn  0.39188928  0.04659644  0.99696223     1.10090
Cl272      Cl  0.43730627  0.00211849  0.99692577    -0.86500
C273        C  0.33847626  0.00184659  0.58382003     0.95840
C274        C  0.33714254  0.00237298  0.91129923     0.95630
C275        C  0.40695508  0.36667061  0.86771621    -0.26850
C276        C  0.43721027  0.37955527  0.87878974    -0.14920
C277        C  0.46581735  0.37187919  0.85820897     0.35710
C278        C  0.46335983  0.35267118  0.82672703    -0.26300
C279        C  0.43306731  0.34071906  0.81529794    -0.15540
C280        C  0.40451764  0.34722515  0.83638863     0.36790
N281        N  0.37264513  0.33545198  0.82646115    -0.89790
H282        H  0.38478475  0.37200669  0.88327490     0.17910
H283        H  0.48517881  0.34744566  0.81049283     0.17900
N284        N  0.49712031  0.38442939  0.86855133    -0.88820
H285        H  0.36516446  0.31929574  0.84695230     0.35270
H286        H  0.37350955  0.32195658  0.80236142     0.40370
H287        H  0.49507258  0.40987292  0.86529481     0.39990
H288        H  0.01566696  0.37632304  0.85070640     0.34880
C289        C  0.46356663  0.33863591  0.65576514    -0.26850
C290        C  0.43718804  0.34267702  0.68018372    -0.14920
C291        C  0.41148082  0.36525767  0.67172903     0.35710
C292        C  0.41280058  0.38376635  0.63951725    -0.26300
C293        C  0.43962900  0.38065080  0.61553632    -0.15540
C294        C  0.46522605  0.35750780  0.62378931     0.36790
N295        N  0.49278836  0.35201897  0.60002186    -0.89790
H296        H  0.48333414  0.32113209  0.66193975     0.17910
H297        H  0.39280735  0.40095687  0.63344913     0.17900
N298        N  0.38370801  0.36908848  0.69559097    -0.88820
H299        H  0.50619807  0.37361717  0.59834928     0.35270
H300        H  0.48401141  0.34607886  0.57418107     0.40370
H301        H  0.36245709  0.36386526  0.68087382     0.39990
H302        H  0.38209537  0.39373707  0.70363037     0.34880
C303        C  0.46583357  0.13856089  0.86809537    -0.26850
C304        C  0.43659573  0.12274169  0.87777157    -0.14920
C305        C  0.40859327  0.12672509  0.85519799     0.35710
C306        C  0.41061301  0.14625769  0.82368035    -0.26300
C307        C  0.43990220  0.16167421  0.81392763    -0.15540
C308        C  0.46788989  0.15796402  0.83654360     0.36790
N309        N  0.49897438  0.17242632  0.82793040    -0.89790
H310        H  0.48750760  0.13570178  0.88507900     0.17910
H311        H  0.38925869  0.14917145  0.80619336     0.17900
N312        N  0.37839039  0.11055748  0.86379104    -0.88820
H313        H  0.00385641  0.18973779  0.84808601     0.35270
H314        H  0.49831424  0.18506159  0.80315671     0.40370
H315        H  0.38271854  0.08522374  0.86092718     0.39990
H316        H  0.35999737  0.11700521  0.84502149     0.34880
C317        C  0.40863522  0.13844093  0.67563653    -0.26850
C318        C  0.43278502  0.16233057  0.67922826    -0.14920
C319        C  0.45714874  0.16522793  0.65203726     0.35710
C320        C  0.45679021  0.14403083  0.62190433    -0.26300
C321        C  0.43279974  0.11987640  0.61837720    -0.15540
C322        C  0.40869355  0.11659755  0.64619237     0.36790
N323        N  0.38493967  0.09078558  0.64671449    -0.89790
H324        H  0.39032334  0.13575196  0.69691080     0.17910
H325        H  0.47537022  0.14647597  0.60089607     0.17900
N326        N  0.48303946  0.18853452  0.65588299    -0.88820
H327        H  0.38757576  0.07816143  0.67145537     0.35270
H328        H  0.39003533  0.07299573  0.62707120     0.40370
H329        H  0.47263711  0.21209011  0.65244999     0.39990
H330        H  0.50038048  0.18562203  0.63498914     0.34880
C331        C  0.31453684  0.47298320  0.85800801    -0.26850
C332        C  0.31549117  0.00188348  0.87885408    -0.14920
C333        C  0.29588006  0.02950151  0.86831379     0.35710
C334        C  0.27664067  0.02782363  0.83664436    -0.26300
C335        C  0.27646057  0.99922321  0.81543282    -0.15540
C336        C  0.29536787  0.47127991  0.82646080     0.36790
N337        N  0.29540100  0.44071976  0.80680735    -0.89790
H338        H  0.32915574  0.45150147  0.86598755     0.17910
H339        H  0.26208165  0.04915146  0.82803383     0.17900
N340        N  0.29542274  0.05907932  0.88968621    -0.88820
H341        H  0.31897746  0.43691124  0.79590097     0.35270
H342        H  0.27893144  0.44140996  0.78504228     0.40370
H343        H  0.28465923  0.05350704  0.91479004     0.39990
H344        H  0.28033585  0.07723642  0.87762594     0.34880
C345        C  0.30131390  0.97755481  0.67478481    -0.26850
C346        C  0.27835512  0.00338742  0.68043527    -0.14920
C347        C  0.27505236  0.52847944  0.65403608     0.35710
C348        C  0.29494449  0.02755487  0.62275700    -0.26300
C349        C  0.31798339  0.00177049  0.61714266    -0.15540
C350        C  0.32125520  0.97650731  0.64351539     0.36790
N351        N  0.34532048  0.95034731  0.63899016    -0.89790
H352        H  0.30387254  0.95823698  0.69510226     0.17910
H353        H  0.29226423  0.54707526  0.60270539     0.17900
N354        N  0.25215493  0.55537664  0.65932626    -0.88820
H355        H  0.34421704  0.93363556  0.66066882     0.35270
H356        H  0.36859883  0.96079154  0.64007981     0.40370
H357        H  0.23583019  0.55591925  0.63734067     0.39990
H358        H  0.26527335  0.57722514  0.65890874     0.34880
C359        C  0.08024750  0.03165369  0.87304182    -0.26850
C360        C  0.05882229  0.00525836  0.87803351    -0.14920
C361        C  0.05700702  0.98105704  0.85069954     0.35710
C362        C  0.07568896  0.98415450  0.81882877    -0.26300
C363        C  0.09694137  0.01043108  0.81373667    -0.15540
C364        C  0.09965386  0.03429077  0.84130455     0.36790
N365        N  0.12166440  0.56121980  0.83678125    -0.89790
H366        H  0.08191043  0.05022790  0.89400213     0.17910
H367        H  0.07403170  0.96555592  0.79786450     0.17900
N368        N  0.03566183  0.95370292  0.85482382    -0.88820
H369        H  0.12083847  0.07650772  0.85961411     0.35270
H370        H  0.11319097  0.07541055  0.81476153     0.40370
H371        H  0.04621270  0.93817399  0.87457166     0.39990
H372        H  0.03508799  0.43992067  0.83084819     0.34880
C373        C  0.07985355  0.02421100  0.62047979    -0.26850
C374        C  0.05590934  0.99991503  0.61763724    -0.14920
C375        C  0.05268533  0.47661396  0.64632194     0.35710
C376        C  0.07419115  0.47780036  0.67609915    -0.26300
C377        C  0.09784302  0.00228053  0.67898543    -0.15540
C378        C  0.10082374  0.02570665  0.65079676     0.36790
N379        N  0.12397147  0.05183300  0.65378317    -0.89790
H380        H  0.08225509  0.04219877  0.59881030     0.17910
H381        H  0.07149003  0.46014880  0.69807326     0.17900
N382        N  0.02724864  0.45248014  0.64738759    -0.88820
H383        H  0.12123827  0.06836873  0.63204558     0.35270
H384        H  0.14762053  0.04143603  0.65124323     0.40370
H385        H  0.01004284  0.95610893  0.62672736     0.39990
H386        H  0.01387057  0.95610362  0.67146989     0.34880
C387        C  0.11647724  0.50510184  0.21348585     0.02600
C388        C  0.15097624  0.00272020  0.21412740    -0.13550
C389        C  0.16882304  0.00682295  0.24686963     0.00100
C390        C  0.15041815  0.01180254  0.27931010    -0.12080
C391        C  0.11589400  0.51169628  0.27919419     0.02590
C392        C  0.09918454  0.50912416  0.24612686    -0.11500
H393        H  0.16320785  0.99672348  0.18886981     0.08180
H394        H  0.16224046  0.01490075  0.30524887     0.05710
H395        H  0.07247124  0.50973412  0.24589189     0.05560
C396        C  0.25917456  0.00410179  0.21482667     0.02600
C397        C  0.22462742  0.00677347  0.21460739    -0.13550
C398        C  0.20608448  0.00509492  0.24728406     0.00100
C399        C  0.22380295  0.00162160  0.28031724    -0.12080
C400        C  0.25828789  0.00032107  0.28067482     0.02590
C401        C  0.27578021  0.00118230  0.24800211    -0.11500
H402        H  0.21282989  0.00997465  0.18854308     0.08180
H403        H  0.21156503  0.99936622  0.30624092     0.05710
H404        H  0.30248846  0.49992855  0.24847327     0.05560
C405        C  0.43449201  0.68099558  0.21373281     0.02600
C406        C  0.43748366  0.66369475  0.24655947    -0.13550
C407        C  0.44019305  0.68047964  0.27941223     0.00040
C408        C  0.44088384  0.71494462  0.27946708    -0.12080
C409        C  0.43656171  0.73335604  0.24689634     0.02590
C410        C  0.43266352  0.71554196  0.21414747    -0.11500
H411        H  0.43771658  0.63699026  0.24659600     0.08180
H412        H  0.44454496  0.72664757  0.30538590     0.05710
H413        H  0.42743642  0.72788336  0.18870462     0.05560
C414        C  0.43680930  0.82364577  0.21469643     0.02600
C415        C  0.43870658  0.78907872  0.21452624    -0.13550
C416        C  0.43569674  0.77058737  0.24715331     0.00100
C417        C  0.43197479  0.78831890  0.28008555    -0.12080
C418        C  0.43238399  0.82275831  0.28049482     0.02590
C419        C  0.43444925  0.84027846  0.24786134    -0.11500
H420        H  0.44239838  0.77724372  0.18856181     0.08180
H421        H  0.42886158  0.77609662  0.30593144     0.05710
H422        H  0.43450559  0.86696958  0.24832890     0.05560
N423        N  0.00751768  0.51737940  0.03959050    -0.06650
N424        N  0.02411448  0.52811521  0.06786128    -0.58770
N425        N  0.00870469  0.98675164  0.45455929    -0.06330
N426        N  0.02677324  0.97616600  0.42685676    -0.60900
N427        N  0.00851201  0.51913153  0.45576740    -0.05930
N428        N  0.02653597  0.53116569  0.42905898    -0.58750
N429        N  0.00847147  0.98499494  0.03870272    -0.05610
N430        N  0.02572740  0.97305213  0.06639747    -0.61250
C431        C  0.03505615  0.50020799  0.08458232     0.95520
C432        C  0.03774878  0.50410967  0.41112444     0.95300
N433        N  0.42210260  0.93137896  0.45484943    -0.06840
N434        N  0.41059042  0.91306311  0.42836980    -0.59350
N435        N  0.45509226  0.93035398  0.03796116    -0.04960
N436        N  0.46684896  0.91211925  0.06502338    -0.60600
N437        N  0.42270374  0.93092528  0.03852767    -0.06870
N438        N  0.41178073  0.91319519  0.06602345    -0.59620
N439        N  0.45448531  0.93122429  0.45418320    -0.04600
N440        N  0.46560189  0.91259627  0.42724073    -0.60690
Mn441      Mn  0.48257251  0.95755474  0.49613245     1.18440
C442        C  0.43795017  0.90146614  0.41119971     0.97610
C443        C  0.43957163  0.90143352  0.08224590     0.98270
N444        N  0.45242324  0.57359726  0.45606670    -0.06890
N445        N  0.46376136  0.59124016  0.42870448    -0.63200
N446        N  0.41902454  0.57260544  0.03931013    -0.05690
N447        N  0.40677773  0.58943505  0.06704820    -0.63870
N448        N  0.45140952  0.57235209  0.04007111    -0.06390
N449        N  0.46185455  0.58904104  0.06842368    -0.63460
N450        N  0.42004086  0.57345920  0.45547437    -0.05290
N451        N  0.40872931  0.59105095  0.42771461    -0.64150
Mn452      Mn  0.48075819  0.54643854  0.49797438     1.10660
C453        C  0.43625303  0.60196659  0.41113614     0.98830
C454        C  0.43373060  0.59924169  0.08523856     0.98910
N455        N  0.36691928  0.98590840  0.03906441    -0.06400
N456        N  0.35015332  0.97440006  0.06698885    -0.61770
N457        N  0.36604169  0.51867063  0.45493283    -0.05720
N458        N  0.34766924  0.52996415  0.42780453    -0.58500
N459        N  0.36675416  0.98629019  0.45513823    -0.07030
N460        N  0.34904403  0.97489568  0.42809027    -0.61340
N461        N  0.36568787  0.51828483  0.03874377    -0.06020
N462        N  0.34791577  0.52949724  0.06637049    -0.58530
Mn463      Mn  0.39389733  0.95794146  0.49695738     1.20190
Mn464      Mn  0.39189527  0.54659623  0.49696290     1.10090
Cl465      Cl  0.43731221  0.50211826  0.49692579    -0.86500
C466        C  0.33848312  0.50184642  0.08382132     0.95840
C467        C  0.33714767  0.50237299  0.41130047     0.95630
C468        C  0.40695065  0.86667073  0.36771590    -0.26850
C469        C  0.43720574  0.87955533  0.37878985    -0.14920
C470        C  0.46581306  0.87187912  0.35820952     0.35710
C471        C  0.46335586  0.85267108  0.32672755    -0.26300
C472        C  0.43306344  0.84071904  0.31529805    -0.15540
C473        C  0.40451355  0.84722520  0.33638834     0.36790
N474        N  0.37264118  0.83545190  0.32646052    -0.89790
H475        H  0.38478015  0.87200687  0.38327427     0.17910
H476        H  0.48517502  0.84744549  0.31049367     0.17900
N477        N  0.49711594  0.88442918  0.36855238    -0.88820
H478        H  0.36516028  0.81929584  0.34695174     0.35270
H479        H  0.37350594  0.82195621  0.30236098     0.40370
H480        H  0.49506836  0.90987272  0.36529586     0.39990
H481        H  0.01566278  0.87632277  0.35070773     0.34880
C482        C  0.46356082  0.83863610  0.15576474    -0.26850
C483        C  0.43718251  0.84267712  0.18018370    -0.14920
C484        C  0.41147505  0.86525761  0.17172926     0.35710
C485        C  0.41279439  0.88376628  0.13951741    -0.26300
C486        C  0.43962261  0.88065086  0.11553621    -0.15540
C487        C  0.46521980  0.85750792  0.12378887     0.36790
N488        N  0.49278185  0.85201906  0.10002105    -0.89790
H489        H  0.48332851  0.82113241  0.16193911     0.17910
H490        H  0.39280105  0.90095674  0.13344951     0.17900
N491        N  0.38370243  0.86908825  0.19559150    -0.88820
H492        H  0.50619165  0.87361719  0.09834837     0.35270
H493        H  0.48400462  0.84607902  0.07418035     0.40370
H494        H  0.36245142  0.86386483  0.18087460     0.39990
H495        H  0.38208966  0.89373686  0.20363083     0.34880
C496        C  0.46583769  0.63856160  0.36809578    -0.26850
C497        C  0.43660021  0.62274174  0.37777193    -0.14920
C498        C  0.40859765  0.62672460  0.35519840     0.35710
C499        C  0.41061696  0.64625730  0.32368081    -0.26300
C500        C  0.43990579  0.66167446  0.31392813    -0.15540
C501        C  0.46789356  0.65796489  0.33654409     0.36790
N502        N  0.49897765  0.67242804  0.32793098    -0.89790
H503        H  0.48751177  0.63570293  0.38507941     0.17910
H504        H  0.38926259  0.64917060  0.30619380     0.17900
N505        N  0.37839514  0.61055632  0.36379145    -0.88820
H506        H  0.00385929  0.68973943  0.34808680     0.35270
H507        H  0.49831709  0.68506361  0.30315747     0.40370
H508        H  0.38272384  0.58522266  0.36092760     0.39990
H509        H  0.36000198  0.61700366  0.34502191     0.34880
C510        C  0.40864129  0.63843959  0.17563694    -0.26850
C511        C  0.43279052  0.66232976  0.17922878    -0.14920
C512        C  0.45715443  0.66522751  0.15203806     0.35710
C513        C  0.45679654  0.64403034  0.12190513    -0.26300
C514        C  0.43280649  0.61987551  0.11837780    -0.15540
C515        C  0.40870028  0.61659616  0.14619284     0.36790
N516        N  0.38494697  0.59078365  0.14671482    -0.89790
H517        H  0.39032930  0.63575030  0.19691105     0.17910
H518        H  0.47537660  0.64647584  0.10089698     0.17900
N519        N  0.48304461  0.68853467  0.15588401    -0.88820
H520        H  0.38758298  0.57815977  0.17145587     0.35270
H521        H  0.39004341  0.57299369  0.12707185     0.40370
H522        H  0.47264174  0.71209006  0.15245123     0.39990
H523        H  0.50038571  0.68562270  0.13499016     0.34880
C524        C  0.31453234  0.97298334  0.35800631    -0.26850
C525        C  0.31549625  0.50188356  0.37885536    -0.14920
C526        C  0.29588578  0.52950189  0.36831458     0.35710
C527        C  0.27664651  0.52782407  0.33664505    -0.26300
C528        C  0.27646591  0.49922344  0.31543391    -0.15540
C529        C  0.29536324  0.97127998  0.32645919     0.36790
N530        N  0.29539693  0.94072002  0.30680535    -0.89790
H531        H  0.32915175  0.95150184  0.36598548     0.17910
H532        H  0.26208802  0.54915213  0.32803411     0.17900
N533        N  0.29542903  0.55907996  0.38968655    -0.88820
H534        H  0.31897337  0.93691217  0.29589868     0.35270
H535        H  0.27892716  0.94141006  0.28504047     0.40370
H536        H  0.28466525  0.55350822  0.41479040     0.39990
H537        H  0.28034260  0.57723725  0.37762593     0.34880
C538        C  0.30132089  0.47755494  0.17478625    -0.26850
C539        C  0.27836181  0.50338735  0.18043638    -0.14920
C540        C  0.27504575  0.02847965  0.15403513     0.35710
C541        C  0.29495119  0.52755463  0.12275805    -0.26300
C542        C  0.31799031  0.50177040  0.11714397    -0.15540
C543        C  0.32126231  0.47650744  0.14351691     0.36790
N544        N  0.34532785  0.45034764  0.13899194    -0.89790
H545        H  0.30387962  0.45823724  0.19510384     0.17910
H546        H  0.29225763  0.04707562  0.10270450     0.17900
N547        N  0.25214855  0.05537699  0.15932560    -0.88820
H548        H  0.34422454  0.43363605  0.16067075     0.35270
H549        H  0.36860609  0.46079212  0.14008152     0.40370
H550        H  0.23582372  0.05591985  0.13734009     0.39990
H551        H  0.26526714  0.07722539  0.15890815     0.34880
C552        C  0.08025288  0.53165314  0.37304078    -0.26850
C553        C  0.05882712  0.50525823  0.37803208    -0.14920
C554        C  0.05701129  0.48105730  0.35069776     0.35710
C555        C  0.07569345  0.48415463  0.31882712    -0.26300
C556        C  0.09694656  0.51043072  0.31373548    -0.15540
C557        C  0.09965940  0.53429012  0.34130364     0.36790
N558        N  0.12165840  0.06122077  0.33678180    -0.89790
H559        H  0.08191618  0.55022707  0.39400135     0.17910
H560        H  0.07403585  0.46555628  0.29786263     0.17900
N561        N  0.03566536  0.45370371  0.35482159    -0.88820
H562        H  0.12084475  0.57650649  0.35961376     0.35270
H563        H  0.11319740  0.57540986  0.31476113     0.40370
H564        H  0.04621591  0.43817427  0.37456915     0.39990
H565        H  0.03508464  0.93991968  0.33085055     0.34880
C566        C  0.07985999  0.52421093  0.12047885    -0.26850
C567        C  0.05591624  0.49991453  0.11763591    -0.14920
C568        C  0.05267799  0.97661488  0.14632360     0.35710
C569        C  0.07418388  0.97780119  0.17610075    -0.26300
C570        C  0.09784970  0.50228019  0.17898426    -0.15540
C571        C  0.10083005  0.52570667  0.15079593     0.36790
N572        N  0.12397725  0.55183344  0.15378279    -0.89790
H573        H  0.08226123  0.54219900  0.09880961     0.17910
H574        H  0.07148244  0.96014994  0.19807510     0.17900
N575        N  0.02724083  0.95248157  0.14738957    -0.88820
H576        H  0.12124396  0.56836925  0.13204529     0.35270
H577        H  0.14762653  0.54143691  0.15124311     0.40370
H578        H  0.01005037  0.45610764  0.12672568     0.39990
H579        H  0.01387847  0.45610151  0.17146811     0.34880
C580        C  0.11647725  0.50510183  0.71348586     0.02600
C581        C  0.15097624  0.00272022  0.71412740    -0.13550
C582        C  0.16882305  0.00682297  0.74686963     0.00100
C583        C  0.15041815  0.01180255  0.77931010    -0.12080
C584        C  0.11589401  0.51169627  0.77919420     0.02590
C585        C  0.09918454  0.50912413  0.74612687    -0.11500
H586        H  0.16320786  0.99672350  0.68886981     0.08180
H587        H  0.16224047  0.01490077  0.80524887     0.05710
H588        H  0.07247125  0.50973407  0.74589191     0.05560
C589        C  0.25917456  0.00410179  0.71482666     0.02600
C590        C  0.22462742  0.00677347  0.71460739    -0.13550
C591        C  0.20608448  0.00509493  0.74728406     0.00100
C592        C  0.22380295  0.00162161  0.78031724    -0.12080
C593        C  0.25828789  0.00032107  0.78067482     0.02590
C594        C  0.27578021  0.00118230  0.74800211    -0.11500
H595        H  0.21282990  0.00997466  0.68854307     0.08180
H596        H  0.21156504  0.99936623  0.80624092     0.05710
H597        H  0.30248846  0.49992856  0.74847327     0.05560
C598        C  0.43449199  0.68099558  0.71373281     0.02600
C599        C  0.43748365  0.66369475  0.74655948    -0.13550
C600        C  0.44019304  0.68047964  0.77941223     0.00040
C601        C  0.44088383  0.71494462  0.77946708    -0.12080
C602        C  0.43656169  0.73335604  0.74689634     0.02590
C603        C  0.43266350  0.71554196  0.71414747    -0.11500
H604        H  0.43771657  0.63699026  0.74659600     0.08180
H605        H  0.44454495  0.72664758  0.80538591     0.05710
H606        H  0.42743640  0.72788336  0.68870462     0.05560
C607        C  0.43680930  0.82364577  0.71469643     0.02600
C608        C  0.43870657  0.78907872  0.71452625    -0.13550
C609        C  0.43569672  0.77058737  0.74715331     0.00100
C610        C  0.43197478  0.78831890  0.78008555    -0.12080
C611        C  0.43238397  0.82275831  0.78049482     0.02590
C612        C  0.43444924  0.84027846  0.74786134    -0.11500
H613        H  0.44239837  0.77724372  0.68856182     0.08180
H614        H  0.42886156  0.77609662  0.80593144     0.05710
H615        H  0.43450558  0.86696958  0.74832890     0.05560
N616        N  0.00751769  0.51737941  0.53959051    -0.06650
N617        N  0.02411448  0.52811521  0.56786130    -0.58770
N618        N  0.00870469  0.98675164  0.95455929    -0.06330
N619        N  0.02677324  0.97616599  0.92685675    -0.60900
N620        N  0.00851200  0.51913152  0.95576739    -0.05930
N621        N  0.02653597  0.53116567  0.92905898    -0.58750
N622        N  0.00847146  0.98499495  0.53870272    -0.05610
N623        N  0.02572740  0.97305213  0.56639747    -0.61250
C624        C  0.03505615  0.50020799  0.58458233     0.95520
C625        C  0.03774878  0.50410965  0.91112444     0.95300
N626        N  0.42210259  0.93137896  0.95484943    -0.06840
N627        N  0.41059041  0.91306311  0.92836980    -0.59350
N628        N  0.45509226  0.93035398  0.53796116    -0.04960
N629        N  0.46684896  0.91211925  0.56502339    -0.60600
N630        N  0.42270374  0.93092528  0.53852767    -0.06870
N631        N  0.41178073  0.91319519  0.56602345    -0.59620
N632        N  0.45448530  0.93122429  0.95418319    -0.04600
N633        N  0.46560188  0.91259627  0.92724073    -0.60690
Mn634      Mn  0.48257250  0.95755474  0.99613244     1.18440
C635        C  0.43795016  0.90146614  0.91119971     0.97610
C636        C  0.43957163  0.90143352  0.58224590     0.98270
N637        N  0.45242324  0.57359725  0.95606669    -0.06890
N638        N  0.46376136  0.59124015  0.92870447    -0.63200
N639        N  0.41902454  0.57260544  0.53931013    -0.05690
N640        N  0.40677772  0.58943505  0.56704820    -0.63870
N641        N  0.45140951  0.57235209  0.54007112    -0.06390
N642        N  0.46185454  0.58904104  0.56842368    -0.63460
N643        N  0.42004086  0.57345919  0.95547437    -0.05290
N644        N  0.40872930  0.59105095  0.92771461    -0.64150
Mn645      Mn  0.48075819  0.54643853  0.99797437     1.10660
C646        C  0.43625303  0.60196658  0.91113613     0.98830
C647        C  0.43373059  0.59924170  0.58523857     0.98910
N648        N  0.36691928  0.98590840  0.53906441    -0.06400
N649        N  0.35015332  0.97440005  0.56698884    -0.61770
N650        N  0.36604169  0.51867063  0.95493283    -0.05720
N651        N  0.34766924  0.52996415  0.92780454    -0.58500
N652        N  0.36675415  0.98629019  0.95513823    -0.07030
N653        N  0.34904403  0.97489568  0.92809027    -0.61340
N654        N  0.36568786  0.51828483  0.53874377    -0.06020
N655        N  0.34791577  0.52949725  0.56637048    -0.58530
Mn656      Mn  0.39389732  0.95794147  0.99695738     1.20190
Mn657      Mn  0.39189527  0.54659622  0.99696290     1.10090
Cl658      Cl  0.43731221  0.50211825  0.99692578    -0.86500
C659        C  0.33848311  0.50184643  0.58382131     0.95840
C660        C  0.33714767  0.50237299  0.91130047     0.95630
C661        C  0.40695065  0.86667068  0.86771594    -0.26850
C662        C  0.43720573  0.87955533  0.87878986    -0.14920
C663        C  0.46581303  0.87187919  0.85820948     0.35710
C664        C  0.46335584  0.85267114  0.82672751    -0.26300
C665        C  0.43306343  0.84071904  0.81529805    -0.15540
C666        C  0.40451355  0.84722515  0.83638838     0.36790
N667        N  0.37264119  0.83545179  0.82646060    -0.89790
H668        H  0.38478016  0.87200677  0.88327435     0.17910
H669        H  0.48517498  0.84744559  0.81049359     0.17900
N670        N  0.49711589  0.88442932  0.86855228    -0.88820
H671        H  0.36516034  0.81929570  0.84695182     0.35270
H672        H  0.37350594  0.82195611  0.80236106     0.40370
H673        H  0.49506824  0.90987286  0.86529577     0.39990
H674        H  0.01566272  0.87632295  0.85070759     0.34880
C675        C  0.46356081  0.83863610  0.65576474    -0.26850
C676        C  0.43718251  0.84267712  0.68018370    -0.14920
C677        C  0.41147504  0.86525760  0.67172926     0.35710
C678        C  0.41279439  0.88376628  0.63951741    -0.26300
C679        C  0.43962261  0.88065086  0.61553621    -0.15540
C680        C  0.46521980  0.85750791  0.62378887     0.36790
N681        N  0.49278184  0.85201906  0.60002105    -0.89790
H682        H  0.48332850  0.82113241  0.66193911     0.17910
H683        H  0.39280105  0.90095674  0.63344950     0.17900
N684        N  0.38370242  0.86908826  0.69559150    -0.88820
H685        H  0.50619165  0.87361719  0.59834837     0.35270
H686        H  0.48400462  0.84607901  0.57418036     0.40370
H687        H  0.36245142  0.86386484  0.68087460     0.39990
H688        H  0.38208965  0.89373686  0.70363082     0.34880
C689        C  0.46583768  0.63856159  0.86809577    -0.26850
C690        C  0.43660020  0.62274174  0.87777193    -0.14920
C691        C  0.40859763  0.62672461  0.85519841     0.35710
C692        C  0.41061694  0.64625730  0.82368082    -0.26300
C693        C  0.43990578  0.66167446  0.81392813    -0.15540
C694        C  0.46789355  0.65796488  0.83654409     0.36790
N695        N  0.49897764  0.67242803  0.82793097    -0.89790
H696        H  0.48751177  0.63570291  0.88507940     0.17910
H697        H  0.38926258  0.64917061  0.80619381     0.17900
N698        N  0.37839512  0.61055633  0.86379147    -0.88820
H699        H  0.00385929  0.68973942  0.84808679     0.35270
H700        H  0.49831708  0.68506360  0.80315746     0.40370
H701        H  0.38272382  0.58522267  0.86092760     0.39990
H702        H  0.36000196  0.61700368  0.84502193     0.34880
C703        C  0.40864127  0.63843959  0.67563694    -0.26850
C704        C  0.43279051  0.66232977  0.67922879    -0.14920
C705        C  0.45715442  0.66522751  0.65203807     0.35710
C706        C  0.45679653  0.64403034  0.62190513    -0.26300
C707        C  0.43280648  0.61987552  0.61837780    -0.15540
C708        C  0.40870027  0.61659616  0.64619284     0.36790
N709        N  0.38494695  0.59078366  0.64671482    -0.89790
H710        H  0.39032929  0.63575030  0.69691105     0.17910
H711        H  0.47537659  0.64647584  0.60089699     0.17900
N712        N  0.48304459  0.68853467  0.65588402    -0.88820
H713        H  0.38758296  0.57815977  0.67145587     0.35270
H714        H  0.39004340  0.57299369  0.62707185     0.40370
H715        H  0.47264173  0.71209006  0.65245124     0.39990
H716        H  0.50038569  0.68562270  0.63499017     0.34880
C717        C  0.31453233  0.97298334  0.85800631    -0.26850
C718        C  0.31549625  0.50188355  0.87885536    -0.14920
C719        C  0.29588577  0.52950189  0.86831459     0.35710
C720        C  0.27664651  0.52782408  0.83664505    -0.26300
C721        C  0.27646591  0.49922344  0.81543391    -0.15540
C722        C  0.29536324  0.97127998  0.82645919     0.36790
N723        N  0.29539691  0.94072002  0.80680536    -0.89790
H724        H  0.32915173  0.95150184  0.86598549     0.17910
H725        H  0.26208802  0.54915213  0.82803412     0.17900
N726        N  0.29542902  0.55907995  0.88968657    -0.88820
H727        H  0.31897335  0.93691216  0.79589870     0.35270
H728        H  0.27892714  0.94141006  0.78504048     0.40370
H729        H  0.28466525  0.55350821  0.91479042     0.39990
H730        H  0.28034260  0.57723724  0.87762595     0.34880
C731        C  0.30132088  0.47755494  0.67478624    -0.26850
C732        C  0.27836182  0.50338737  0.68043638    -0.14920
C733        C  0.27504576  0.02847965  0.65403513     0.35710
C734        C  0.29495120  0.52755465  0.62275805    -0.26300
C735        C  0.31799031  0.50177041  0.61714397    -0.15540
C736        C  0.32126230  0.47650744  0.64351691     0.36790
N737        N  0.34532783  0.45034764  0.63899193    -0.89790
H738        H  0.30387961  0.45823724  0.69510383     0.17910
H739        H  0.29225764  0.04707562  0.60270450     0.17900
N740        N  0.25214856  0.05537700  0.65932560    -0.88820
H741        H  0.34422452  0.43363604  0.66067073     0.35270
H742        H  0.36860607  0.46079211  0.64008151     0.40370
H743        H  0.23582373  0.05591986  0.63734010     0.39990
H744        H  0.26526716  0.07722539  0.65890816     0.34880
C745        C  0.08025284  0.53165316  0.87304076    -0.26850
C746        C  0.05882713  0.50525820  0.87803209    -0.14920
C747        C  0.05701137  0.48105723  0.85069780     0.35710
C748        C  0.07569353  0.48415457  0.81882716    -0.26300
C749        C  0.09694658  0.51043070  0.81373549    -0.15540
C750        C  0.09965937  0.53429014  0.84130362     0.36790
N751        N  0.12165841  0.06122078  0.83678181    -0.89790
H752        H  0.08191609  0.55022711  0.89400130     0.17910
H753        H  0.07403597  0.46555619  0.79786270     0.17900
N754        N  0.03566551  0.45370360  0.85482167    -0.88820
H755        H  0.12084463  0.57650657  0.85961369     0.35270
H756        H  0.11319729  0.57540988  0.81476105     0.40370
H757        H  0.04621607  0.43817421  0.87456927     0.39990
H758        H  0.03508466  0.93991968  0.83085054     0.34880
C759        C  0.07985998  0.52421094  0.62047887    -0.26850
C760        C  0.05591624  0.49991453  0.61763592    -0.14920
C761        C  0.05267799  0.97661489  0.64632360     0.35710
C762        C  0.07418388  0.97780121  0.67610076    -0.26300
C763        C  0.09784971  0.50228018  0.67898426    -0.15540
C764        C  0.10083004  0.52570667  0.65079595     0.36790
N765        N  0.12397723  0.55183345  0.65378283    -0.89790
H766        H  0.08226122  0.54219901  0.59880964     0.17910
H767        H  0.07148245  0.96014996  0.69807511     0.17900
N768        N  0.02724083  0.95248158  0.64738958    -0.88820
H769        H  0.12124393  0.56836927  0.63204533     0.35270
H770        H  0.14762652  0.54143693  0.65124313     0.40370
H771        H  0.01005038  0.45610761  0.62672567     0.39990
H772        H  0.01387849  0.45610146  0.67146810     0.34880
C773        C  0.61647091  0.00510207  0.21348682     0.02600
C774        C  0.65098257  0.50272014  0.21412683    -0.13550
C775        C  0.66882903  0.50682268  0.24686934     0.00100
C776        C  0.65042375  0.51180197  0.27930961    -0.12080
C777        C  0.61588840  0.01169679  0.27919515     0.02590
C778        C  0.59917857  0.00912454  0.24612806    -0.11500
H779        H  0.66321442  0.49672372  0.18886929     0.08180
H780        H  0.66224576  0.51489996  0.30524857     0.05710
H781        H  0.57246527  0.00973452  0.24589347     0.05560
C782        C  0.75918092  0.50410167  0.21482756     0.02600
C783        C  0.72463377  0.50677316  0.21460783    -0.13550
C784        C  0.70609048  0.50509477  0.24728427     0.00100
C785        C  0.72380864  0.50162174  0.28031770    -0.12080
C786        C  0.75829357  0.50032130  0.28067571     0.02590
C787        C  0.77578623  0.50118240  0.24800321    -0.11500
H788        H  0.71283654  0.50997410  0.18854333     0.08180
H789        H  0.71157051  0.49936650  0.30624127     0.05710
H790        H  0.80248244  0.99992838  0.24847182     0.05560
C791        C  0.93448745  0.18099605  0.21373244     0.02600
C792        C  0.93747880  0.16369494  0.24655898    -0.13550
C793        C  0.94018977  0.18047952  0.27941178     0.00040
C794        C  0.94088250  0.21494443  0.27946672    -0.12080
C795        C  0.93656072  0.23335613  0.24689614     0.02590
C796        C  0.93266073  0.21554247  0.21414733    -0.11500
H797        H  0.93771041  0.13699046  0.24659536     0.08180
H798        H  0.94454489  0.22664720  0.30538543     0.05710
H799        H  0.92743368  0.22788436  0.18870474     0.05560
C800        C  0.93681414  0.32364564  0.21469639     0.02600
C801        C  0.93870959  0.28907854  0.21452618    -0.13550
C802        C  0.93569802  0.27058739  0.24715316     0.00100
C803        C  0.93197644  0.28831901  0.28008536    -0.12080
C804        C  0.93238758  0.32275836  0.28049471     0.02590
C805        C  0.93445441  0.34027840  0.24786128    -0.11500
H806        H  0.94240122  0.27724331  0.18856183     0.08180
H807        H  0.92886197  0.27609678  0.30593110     0.05710
H808        H  0.93451201  0.36696948  0.24832884     0.05560
N809        N  0.50751125  0.01737974  0.03959144    -0.06650
N810        N  0.52410780  0.02811561  0.06786238    -0.58770
N811        N  0.50871010  0.48675141  0.45455830    -0.06330
N812        N  0.52677834  0.47616580  0.42685550    -0.60900
N813        N  0.50850655  0.01913175  0.45576834    -0.05930
N814        N  0.52653078  0.03116588  0.42906012    -0.58750
N815        N  0.50847790  0.48499461  0.03870169    -0.05610
N816        N  0.52573411  0.47305174  0.06639619    -0.61250
C817        C  0.53504929  0.00020842  0.08458362     0.95520
C818        C  0.53774383  0.00410983  0.41112579     0.95300
N819        N  0.92210800  0.43137883  0.45484955    -0.06840
N820        N  0.91059551  0.41306303  0.42837004    -0.59350
N821        N  0.95509855  0.43035363  0.03796092    -0.04960
N822        N  0.96685538  0.41211888  0.06502310    -0.60600
N823        N  0.92271003  0.43092503  0.03852773    -0.06870
N824        N  0.91178715  0.41319503  0.06602360    -0.59620
N825        N  0.95449070  0.43122409  0.45418291    -0.04600
N826        N  0.96560697  0.41259610  0.42724029    -0.60690
Mn827      Mn  0.98257840  0.45755445  0.49613181     1.18440
C828        C  0.93795507  0.40146603  0.41119960     0.97610
C829        C  0.93957809  0.40143328  0.08224587     0.98270
N830        N  0.95241773  0.07359740  0.45606676    -0.06890
N831        N  0.96375619  0.09124020  0.42870464    -0.63200
N832        N  0.91901811  0.07260575  0.03930981    -0.05690
N833        N  0.90677110  0.08943554  0.06704767    -0.63870
N834        N  0.95140308  0.07235234  0.04007113    -0.06390
N835        N  0.96184790  0.08904139  0.06842369    -0.63460
N836        N  0.92003536  0.07345938  0.45547399    -0.05290
N837        N  0.90872415  0.09105108  0.42771401    -0.64150
Mn838      Mn  0.98075221  0.04643877  0.49797487     1.10660
C839        C  0.93624809  0.10196663  0.41113587     0.98830
C840        C  0.93372385  0.09924220  0.08523825     0.98910
N841        N  0.86692569  0.48590819  0.03906538    -0.06400
N842        N  0.85015998  0.47439986  0.06699002    -0.61770
N843        N  0.86603618  0.01867073  0.45493184    -0.05720
N844        N  0.84766391  0.02996418  0.42780337    -0.58500
N845        N  0.86675961  0.48629010  0.45513918    -0.07030
N846        N  0.84904925  0.47489565  0.42809138    -0.61340
N847        N  0.86568142  0.01828505  0.03874280    -0.06020
N848        N  0.84790905  0.02949743  0.06636933    -0.58530
Mn849      Mn  0.89390323  0.45794130  0.49695790     1.20190
Mn850      Mn  0.89188928  0.04659644  0.49696223     1.10090
Cl851      Cl  0.93730627  0.00211849  0.49692577    -0.86500
C852        C  0.83847626  0.00184659  0.08382003     0.95840
C853        C  0.83714254  0.00237298  0.41129923     0.95630
C854        C  0.90695508  0.36667066  0.36771618    -0.26850
C855        C  0.93721029  0.37955527  0.37878974    -0.14920
C856        C  0.96581738  0.37187914  0.35820901     0.35710
C857        C  0.96335986  0.35267113  0.32672707    -0.26300
C858        C  0.93306733  0.34071906  0.31529795    -0.15540
C859        C  0.90451765  0.34722520  0.33638860     0.36790
N860        N  0.87264512  0.33545207  0.32646109    -0.89790
H861        H  0.88478474  0.37200678  0.38327484     0.17910
H862        H  0.98517885  0.34744557  0.31049290     0.17900
N863        N  0.99712035  0.38442927  0.36855141    -0.88820
H864        H  0.86516441  0.31929584  0.34695223     0.35270
H865        H  0.87350955  0.32195665  0.30236137     0.40370
H866        H  0.99507268  0.40987280  0.36529489     0.39990
H867        H  0.51566700  0.37632285  0.35070653     0.34880
C868        C  0.96356663  0.33863591  0.15576514    -0.26850
C869        C  0.93718805  0.34267702  0.18018372    -0.14920
C870        C  0.91148083  0.36525768  0.17172904     0.35710
C871        C  0.91280059  0.38376635  0.13951726    -0.26300
C872        C  0.93962900  0.38065080  0.11553633    -0.15540
C873        C  0.96522604  0.35750779  0.12378931     0.36790
N874        N  0.99278835  0.35201895  0.10002185    -0.89790
H875        H  0.98333413  0.32113208  0.16193974     0.17910
H876        H  0.89280736  0.40095688  0.13344914     0.17900
N877        N  0.88370802  0.36908849  0.19559098    -0.88820
H878        H  0.00619807  0.37361715  0.09834927     0.35270
H879        H  0.98401140  0.34607885  0.07418106     0.40370
H880        H  0.86245710  0.36386528  0.18087384     0.39990
H881        H  0.88209539  0.39373708  0.20363039     0.34880
C882        C  0.96583356  0.13856090  0.36809538    -0.26850
C883        C  0.93659572  0.12274168  0.37777157    -0.14920
C884        C  0.90859327  0.12672507  0.35519798     0.35710
C885        C  0.91061301  0.14625768  0.32368034    -0.26300
C886        C  0.93990219  0.16167421  0.31392763    -0.15540
C887        C  0.96788989  0.15796403  0.33654361     0.36790
N888        N  0.99897437  0.17242633  0.32793041    -0.89790
H889        H  0.98750759  0.13570179  0.38507902     0.17910
H890        H  0.88925869  0.14917143  0.30619335     0.17900
N891        N  0.87839039  0.11055746  0.36379102    -0.88820
H892        H  0.50385641  0.18973779  0.34808602     0.35270
H893        H  0.99831423  0.18506160  0.30315672     0.40370
H894        H  0.88271855  0.08522372  0.36092717     0.39990
H895        H  0.85999737  0.11700519  0.34502147     0.34880
C896        C  0.90863522  0.13844093  0.17563653    -0.26850
C897        C  0.93278503  0.16233056  0.17922826    -0.14920
C898        C  0.95714875  0.16522792  0.15203727     0.35710
C899        C  0.95679022  0.14403082  0.12190434    -0.26300
C900        C  0.93279974  0.11987640  0.11837720    -0.15540
C901        C  0.90869356  0.11659755  0.14619237     0.36790
N902        N  0.88493966  0.09078559  0.14671449    -0.89790
H903        H  0.89032333  0.13575197  0.19691080     0.17910
H904        H  0.97537024  0.14647596  0.10089608     0.17900
N905        N  0.98303947  0.18853450  0.15588300    -0.88820
H906        H  0.88757575  0.07816144  0.17145536     0.35270
H907        H  0.89003533  0.07299573  0.12707119     0.40370
H908        H  0.97263713  0.21209010  0.15245000     0.39990
H909        H  0.00038050  0.18562202  0.13498915     0.34880
C910        C  0.81453684  0.47298320  0.35800801    -0.26850
C911        C  0.81549117  0.00188347  0.37885408    -0.14920
C912        C  0.79588005  0.02950150  0.36831381     0.35710
C913        C  0.77664066  0.02782362  0.33664437    -0.26300
C914        C  0.77646056  0.99922321  0.31543283    -0.15540
C915        C  0.79536787  0.47127991  0.32646080     0.36790
N916        N  0.79540099  0.44071975  0.30680737    -0.89790
H917        H  0.82915573  0.45150147  0.36598755     0.17910
H918        H  0.76208163  0.04915145  0.32803385     0.17900
N919        N  0.79542272  0.05907931  0.38968623    -0.88820
H920        H  0.81897745  0.43691123  0.29590098     0.35270
H921        H  0.77893143  0.44140996  0.28504229     0.40370
H922        H  0.78465921  0.05350701  0.41479006     0.39990
H923        H  0.78033581  0.07723640  0.37762597     0.34880
C924        C  0.80131390  0.97755482  0.17478481    -0.26850
C925        C  0.77835512  0.00338742  0.18043527    -0.14920
C926        C  0.77505235  0.52847943  0.15403608     0.35710
C927        C  0.79494448  0.02755487  0.12275700    -0.26300
C928        C  0.81798339  0.00177049  0.11714267    -0.15540
C929        C  0.82125521  0.97650732  0.14351540     0.36790
N930        N  0.84532049  0.95034732  0.13899017    -0.89790
H931        H  0.80387255  0.95823699  0.19510227     0.17910
H932        H  0.79226422  0.54707524  0.10270539     0.17900
N933        N  0.75215491  0.55537662  0.15932626    -0.88820
H934        H  0.84421705  0.93363558  0.16066883     0.35270
H935        H  0.86859884  0.96079156  0.14007982     0.40370
H936        H  0.73583017  0.55591922  0.13734067     0.39990
H937        H  0.76527333  0.57722513  0.15890873     0.34880
C938        C  0.58024749  0.03165368  0.37304181    -0.26850
C939        C  0.55882228  0.00525836  0.37803351    -0.14920
C940        C  0.55700701  0.98105703  0.35069955     0.35710
C941        C  0.57568896  0.98415448  0.31882878    -0.26300
C942        C  0.59694137  0.01043106  0.31373667    -0.15540
C943        C  0.59965386  0.03429076  0.34130455     0.36790
N944        N  0.62166448  0.56121973  0.33678130    -0.89790
H945        H  0.58191042  0.05022789  0.39400212     0.17910
H946        H  0.57403169  0.96555590  0.29786450     0.17900
N947        N  0.53566182  0.95370291  0.35482382    -0.88820
H948        H  0.62083846  0.07650771  0.35961409     0.35270
H949        H  0.61319096  0.07541054  0.31476151     0.40370
H950        H  0.54621269  0.93817399  0.37457167     0.39990
H951        H  0.53508779  0.43992081  0.33084809     0.34880
C952        C  0.57985355  0.02421099  0.12047979    -0.26850
C953        C  0.55590934  0.99991502  0.11763724    -0.14920
C954        C  0.55268532  0.47661397  0.14632194     0.35710
C955        C  0.57419113  0.47780037  0.17609915    -0.26300
C956        C  0.59784302  0.00228051  0.17898542    -0.15540
C957        C  0.60082374  0.02570663  0.15079676     0.36790
N958        N  0.62397147  0.05183297  0.15378317    -0.89790
H959        H  0.58225510  0.04219875  0.09881030     0.17910
H960        H  0.57149001  0.46014883  0.19807326     0.17900
N961        N  0.52724862  0.45248017  0.14738760    -0.88820
H962        H  0.62123827  0.06836871  0.13204558     0.35270
H963        H  0.64762054  0.04143600  0.15124323     0.40370
H964        H  0.51004283  0.95610893  0.12672736     0.39990
H965        H  0.51387056  0.95610361  0.17146988     0.34880
C966        C  0.61647091  0.00510209  0.71348683     0.02600
C967        C  0.65098257  0.50272014  0.71412682    -0.13550
C968        C  0.66882903  0.50682269  0.74686933     0.00100
C969        C  0.65042376  0.51180199  0.77930960    -0.12080
C970        C  0.61588841  0.01169681  0.77919515     0.02590
C971        C  0.59917857  0.00912457  0.74612806    -0.11500
H972        H  0.66321442  0.49672373  0.68886929     0.08180
H973        H  0.66224577  0.51490000  0.80524856     0.05710
H974        H  0.57246527  0.00973454  0.74589348     0.05560
C975        C  0.75918092  0.50410168  0.71482755     0.02600
C976        C  0.72463377  0.50677318  0.71460782    -0.13550
C977        C  0.70609049  0.50509478  0.74728426     0.00100
C978        C  0.72380864  0.50162175  0.78031770    -0.12080
C979        C  0.75829358  0.50032131  0.78067570     0.02590
C980        C  0.77578624  0.50118241  0.74800321    -0.11500
H981        H  0.71283654  0.50997412  0.68854333     0.08180
H982        H  0.71157051  0.49936650  0.80624126     0.05710
H983        H  0.80248244  0.99992838  0.74847182     0.05560
C984        C  0.93448745  0.18099606  0.71373244     0.02600
C985        C  0.93747880  0.16369494  0.74655898    -0.13550
C986        C  0.94018977  0.18047952  0.77941177     0.00040
C987        C  0.94088251  0.21494443  0.77946672    -0.12080
C988        C  0.93656072  0.23335613  0.74689613     0.02590
C989        C  0.93266072  0.21554247  0.71414733    -0.11500
H990        H  0.93771041  0.13699047  0.74659536     0.08180
H991        H  0.94454490  0.22664721  0.80538543     0.05710
H992        H  0.92743366  0.22788437  0.68870474     0.05560
C993        C  0.93681413  0.32364564  0.71469639     0.02600
C994        C  0.93870959  0.28907855  0.71452617    -0.13550
C995        C  0.93569802  0.27058740  0.74715316     0.00100
C996        C  0.93197643  0.28831902  0.78008536    -0.12080
C997        C  0.93238756  0.32275837  0.78049470     0.02590
C998        C  0.93445440  0.34027840  0.74786127    -0.11500
H999        H  0.94240122  0.27724331  0.68856183     0.08180
H1000       H  0.92886195  0.27609678  0.80593109     0.05710
H1001       H  0.93451200  0.36696949  0.74832883     0.05560
N1002       N  0.50751126  0.01737974  0.53959144    -0.06650
N1003       N  0.52410780  0.02811562  0.56786238    -0.58770
N1004       N  0.50871010  0.48675140  0.95455829    -0.06330
N1005       N  0.52677835  0.47616579  0.92685550    -0.60900
N1006       N  0.50850655  0.01913175  0.95576833    -0.05930
N1007       N  0.52653078  0.03116588  0.92906012    -0.58750
N1008       N  0.50847789  0.48499461  0.53870169    -0.05610
N1009       N  0.52573411  0.47305174  0.56639620    -0.61250
C1010       C  0.53504929  0.00020843  0.58458362     0.95520
C1011       C  0.53774383  0.00410983  0.91112579     0.95300
N1012       N  0.92210798  0.43137882  0.95484955    -0.06840
N1013       N  0.91059549  0.41306302  0.92837005    -0.59350
N1014       N  0.95509856  0.43035363  0.53796091    -0.04960
N1015       N  0.96685539  0.41211888  0.56502310    -0.60600
N1016       N  0.92271004  0.43092503  0.53852772    -0.06870
N1017       N  0.91178716  0.41319503  0.56602360    -0.59620
N1018       N  0.95449069  0.43122408  0.95418292    -0.04600
N1019       N  0.96560696  0.41259609  0.92724029    -0.60690
Mn1020     Mn  0.98257839  0.45755445  0.99613181     1.18440
C1021       C  0.93795505  0.40146603  0.91119960     0.97610
C1022       C  0.93957810  0.40143328  0.58224586     0.98270
N1023       N  0.95241773  0.07359740  0.95606676    -0.06890
N1024       N  0.96375619  0.09124020  0.92870464    -0.63200
N1025       N  0.91901810  0.07260575  0.53930981    -0.05690
N1026       N  0.90677109  0.08943554  0.56704767    -0.63870
N1027       N  0.95140307  0.07235234  0.54007113    -0.06390
N1028       N  0.96184789  0.08904139  0.56842369    -0.63460
N1029       N  0.92003536  0.07345938  0.95547399    -0.05290
N1030       N  0.90872416  0.09105108  0.92771401    -0.64150
Mn1031     Mn  0.98075222  0.04643876  0.99797487     1.10660
C1032       C  0.93624810  0.10196664  0.91113587     0.98830
C1033       C  0.93372385  0.09924220  0.58523825     0.98910
N1034       N  0.86692570  0.48590819  0.53906537    -0.06400
N1035       N  0.85015999  0.47439986  0.56699001    -0.61770
N1036       N  0.86603618  0.01867073  0.95493184    -0.05720
N1037       N  0.84766391  0.02996418  0.92780337    -0.58500
N1038       N  0.86675960  0.48629009  0.95513918    -0.07030
N1039       N  0.84904924  0.47489565  0.92809138    -0.61340
N1040       N  0.86568141  0.01828504  0.53874280    -0.06020
N1041       N  0.84790905  0.02949743  0.56636933    -0.58530
Mn1042     Mn  0.89390322  0.45794129  0.99695791     1.20190
Mn1043     Mn  0.89188928  0.04659644  0.99696223     1.10090
Cl1044     Cl  0.93730627  0.00211849  0.99692576    -0.86500
C1045       C  0.83847625  0.00184658  0.58382003     0.95840
C1046       C  0.83714254  0.00237298  0.91129923     0.95630
C1047       C  0.90695508  0.36667061  0.86771621    -0.26850
C1048       C  0.93721027  0.37955527  0.87878974    -0.14920
C1049       C  0.96581735  0.37187919  0.85820897     0.35710
C1050       C  0.96335983  0.35267118  0.82672703    -0.26300
C1051       C  0.93306731  0.34071906  0.81529794    -0.15540
C1052       C  0.90451764  0.34722516  0.83638863     0.36790
N1053       N  0.87264513  0.33545199  0.82646114    -0.89790
H1054       H  0.88478474  0.37200670  0.88327490     0.17910
H1055       H  0.98517881  0.34744566  0.81049283     0.17900
N1056       N  0.99712031  0.38442939  0.86855133    -0.88820
H1057       H  0.86516445  0.31929574  0.84695229     0.35270
H1058       H  0.87350954  0.32195658  0.80236141     0.40370
H1059       H  0.99507258  0.40987291  0.86529482     0.39990
H1060       H  0.51566696  0.37632304  0.85070639     0.34880
C1061       C  0.96356663  0.33863591  0.65576514    -0.26850
C1062       C  0.93718805  0.34267702  0.68018372    -0.14920
C1063       C  0.91148083  0.36525767  0.67172903     0.35710
C1064       C  0.91280059  0.38376635  0.63951724    -0.26300
C1065       C  0.93962900  0.38065080  0.61553632    -0.15540
C1066       C  0.96522605  0.35750780  0.62378931     0.36790
N1067       N  0.99278837  0.35201897  0.60002186    -0.89790
H1068       H  0.98333414  0.32113209  0.66193975     0.17910
H1069       H  0.89280736  0.40095687  0.63344913     0.17900
N1070       N  0.88370801  0.36908848  0.69559096    -0.88820
H1071       H  0.00619808  0.37361717  0.59834928     0.35270
H1072       H  0.98401142  0.34607886  0.57418107     0.40370
H1073       H  0.86245709  0.36386526  0.68087382     0.39990
H1074       H  0.88209537  0.39373707  0.70363037     0.34880
C1075       C  0.96583357  0.13856089  0.86809537    -0.26850
C1076       C  0.93659573  0.12274169  0.87777157    -0.14920
C1077       C  0.90859327  0.12672509  0.85519799     0.35710
C1078       C  0.91061302  0.14625769  0.82368035    -0.26300
C1079       C  0.93990220  0.16167421  0.81392763    -0.15540
C1080       C  0.96788990  0.15796403  0.83654360     0.36790
N1081       N  0.99897438  0.17242632  0.82793040    -0.89790
H1082       H  0.98750761  0.13570178  0.88507900     0.17910
H1083       H  0.88925869  0.14917145  0.80619336     0.17900
N1084       N  0.87839039  0.11055748  0.86379104    -0.88820
H1085       H  0.50385641  0.18973779  0.84808601     0.35270
H1086       H  0.99831424  0.18506159  0.80315670     0.40370
H1087       H  0.88271854  0.08522374  0.86092718     0.39990
H1088       H  0.85999737  0.11700522  0.84502149     0.34880
C1089       C  0.90863522  0.13844093  0.67563653    -0.26850
C1090       C  0.93278502  0.16233057  0.67922826    -0.14920
C1091       C  0.95714873  0.16522793  0.65203726     0.35710
C1092       C  0.95679020  0.14403083  0.62190433    -0.26300
C1093       C  0.93279973  0.11987640  0.61837720    -0.15540
C1094       C  0.90869355  0.11659755  0.64619237     0.36790
N1095       N  0.88493966  0.09078558  0.64671450    -0.89790
H1096       H  0.89032333  0.13575196  0.69691081     0.17910
H1097       H  0.97537022  0.14647597  0.60089607     0.17900
N1098       N  0.98303946  0.18853452  0.65588298    -0.88820
H1099       H  0.88757576  0.07816143  0.67145537     0.35270
H1100       H  0.89003533  0.07299573  0.62707120     0.40370
H1101       H  0.97263711  0.21209011  0.65244999     0.39990
H1102       H  0.00038048  0.18562203  0.63498913     0.34880
C1103       C  0.81453684  0.47298321  0.85800801    -0.26850
C1104       C  0.81549117  0.00188348  0.87885408    -0.14920
C1105       C  0.79588006  0.02950151  0.86831380     0.35710
C1106       C  0.77664067  0.02782363  0.83664436    -0.26300
C1107       C  0.77646057  0.99922321  0.81543283    -0.15540
C1108       C  0.79536787  0.47127992  0.82646079     0.36790
N1109       N  0.79540100  0.44071976  0.80680735    -0.89790
H1110       H  0.82915573  0.45150148  0.86598754     0.17910
H1111       H  0.76208165  0.04915146  0.82803383     0.17900
N1112       N  0.79542274  0.05907933  0.88968620    -0.88820
H1113       H  0.81897746  0.43691124  0.79590097     0.35270
H1114       H  0.77893144  0.44140997  0.78504228     0.40370
H1115       H  0.78465923  0.05350704  0.91479004     0.39990
H1116       H  0.78033585  0.07723642  0.87762594     0.34880
C1117       C  0.80131390  0.97755481  0.67478481    -0.26850
C1118       C  0.77835512  0.00338742  0.68043527    -0.14920
C1119       C  0.77505236  0.52847944  0.65403608     0.35710
C1120       C  0.79494448  0.02755487  0.62275701    -0.26300
C1121       C  0.81798339  0.00177048  0.61714267    -0.15540
C1122       C  0.82125520  0.97650731  0.64351540     0.36790
N1123       N  0.84532048  0.95034730  0.63899016    -0.89790
H1124       H  0.80387254  0.95823697  0.69510226     0.17910
H1125       H  0.79226424  0.54707525  0.60270539     0.17900
N1126       N  0.75215493  0.55537663  0.65932625    -0.88820
H1127       H  0.84421704  0.93363556  0.66066882     0.35270
H1128       H  0.86859883  0.96079154  0.64007981     0.40370
H1129       H  0.73583019  0.55591925  0.63734067     0.39990
H1130       H  0.76527335  0.57722514  0.65890873     0.34880
C1131       C  0.58024750  0.03165369  0.87304182    -0.26850
C1132       C  0.55882229  0.00525836  0.87803351    -0.14920
C1133       C  0.55700702  0.98105704  0.85069955     0.35710
C1134       C  0.57568896  0.98415450  0.81882878    -0.26300
C1135       C  0.59694137  0.01043108  0.81373668    -0.15540
C1136       C  0.59965386  0.03429077  0.84130456     0.36790
N1137       N  0.62166440  0.56121980  0.83678124    -0.89790
H1138       H  0.58191043  0.05022790  0.89400213     0.17910
H1139       H  0.57403170  0.96555592  0.79786450     0.17900
N1140       N  0.53566183  0.95370292  0.85482382    -0.88820
H1141       H  0.62083847  0.07650772  0.85961411     0.35270
H1142       H  0.61319097  0.07541055  0.81476153     0.40370
H1143       H  0.54621270  0.93817399  0.87457166     0.39990
H1144       H  0.53508799  0.43992067  0.83084819     0.34880
C1145       C  0.57985355  0.02421100  0.62047979    -0.26850
C1146       C  0.55590934  0.99991503  0.61763724    -0.14920
C1147       C  0.55268533  0.47661396  0.64632194     0.35710
C1148       C  0.57419115  0.47780036  0.67609914    -0.26300
C1149       C  0.59784302  0.00228053  0.67898543    -0.15540
C1150       C  0.60082374  0.02570665  0.65079677     0.36790
N1151       N  0.62397147  0.05183299  0.65378317    -0.89790
H1152       H  0.58225509  0.04219877  0.59881030     0.17910
H1153       H  0.57149003  0.46014880  0.69807325     0.17900
N1154       N  0.52724864  0.45248014  0.64738759    -0.88820
H1155       H  0.62123827  0.06836873  0.63204558     0.35270
H1156       H  0.64762054  0.04143602  0.65124324     0.40370
H1157       H  0.51004284  0.95610893  0.62672736     0.39990
H1158       H  0.51387056  0.95610362  0.67146989     0.34880
C1159       C  0.61647724  0.50510184  0.21348585     0.02600
C1160       C  0.65097624  0.00272020  0.21412740    -0.13550
C1161       C  0.66882304  0.00682295  0.24686963     0.00100
C1162       C  0.65041815  0.01180254  0.27931010    -0.12080
C1163       C  0.61589400  0.51169627  0.27919420     0.02590
C1164       C  0.59918454  0.50912415  0.24612686    -0.11500
H1165       H  0.66320786  0.99672348  0.18886981     0.08180
H1166       H  0.66224046  0.01490075  0.30524887     0.05710
H1167       H  0.57247124  0.50973411  0.24589190     0.05560
C1168       C  0.75917456  0.00410179  0.21482667     0.02600
C1169       C  0.72462742  0.00677347  0.21460739    -0.13550
C1170       C  0.70608448  0.00509492  0.24728406     0.00100
C1171       C  0.72380295  0.00162160  0.28031724    -0.12080
C1172       C  0.75828789  0.00032107  0.28067482     0.02590
C1173       C  0.77578021  0.00118230  0.24800211    -0.11500
H1174       H  0.71282989  0.00997465  0.18854308     0.08180
H1175       H  0.71156504  0.99936622  0.30624092     0.05710
H1176       H  0.80248846  0.49992855  0.24847327     0.05560
C1177       C  0.93449201  0.68099558  0.21373281     0.02600
C1178       C  0.93748366  0.66369475  0.24655947    -0.13550
C1179       C  0.94019305  0.68047964  0.27941223     0.00040
C1180       C  0.94088384  0.71494462  0.27946708    -0.12080
C1181       C  0.93656171  0.73335604  0.24689634     0.02590
C1182       C  0.93266352  0.71554196  0.21414747    -0.11500
H1183       H  0.93771658  0.63699026  0.24659600     0.08180
H1184       H  0.94454497  0.72664758  0.30538590     0.05710
H1185       H  0.92743642  0.72788336  0.18870462     0.05560
C1186       C  0.93680931  0.82364577  0.21469643     0.02600
C1187       C  0.93870658  0.78907872  0.21452624    -0.13550
C1188       C  0.93569674  0.77058737  0.24715331     0.00100
C1189       C  0.93197480  0.78831890  0.28008555    -0.12080
C1190       C  0.93238399  0.82275831  0.28049482     0.02590
C1191       C  0.93444926  0.84027846  0.24786134    -0.11500
H1192       H  0.94239838  0.77724372  0.18856181     0.08180
H1193       H  0.92886158  0.77609662  0.30593144     0.05710
H1194       H  0.93450560  0.86696958  0.24832890     0.05560
N1195       N  0.50751769  0.51737940  0.03959050    -0.06650
N1196       N  0.52411448  0.52811521  0.06786128    -0.58770
N1197       N  0.50870469  0.98675164  0.45455930    -0.06330
N1198       N  0.52677324  0.97616599  0.42685676    -0.60900
N1199       N  0.50851200  0.51913153  0.45576740    -0.05930
N1200       N  0.52653597  0.53116568  0.42905898    -0.58750
N1201       N  0.50847146  0.98499494  0.03870272    -0.05610
N1202       N  0.52572740  0.97305213  0.06639747    -0.61250
C1203       C  0.53505615  0.50020799  0.08458232     0.95520
C1204       C  0.53774878  0.50410966  0.41112444     0.95300
N1205       N  0.92210260  0.93137896  0.45484943    -0.06840
N1206       N  0.91059042  0.91306311  0.42836980    -0.59350
N1207       N  0.95509226  0.93035398  0.03796115    -0.04960
N1208       N  0.96684896  0.91211925  0.06502338    -0.60600
N1209       N  0.92270374  0.93092528  0.03852767    -0.06870
N1210       N  0.91178073  0.91319519  0.06602345    -0.59620
N1211       N  0.95448531  0.93122429  0.45418319    -0.04600
N1212       N  0.96560189  0.91259628  0.42724073    -0.60690
Mn1213     Mn  0.98257250  0.95755474  0.49613245     1.18440
C1214       C  0.93795017  0.90146614  0.41119971     0.97610
C1215       C  0.93957163  0.90143352  0.08224590     0.98270
N1216       N  0.95242324  0.57359726  0.45606670    -0.06890
N1217       N  0.96376136  0.59124016  0.42870448    -0.63200
N1218       N  0.91902454  0.57260544  0.03931013    -0.05690
N1219       N  0.90677773  0.58943505  0.06704820    -0.63870
N1220       N  0.95140952  0.57235209  0.04007111    -0.06390
N1221       N  0.96185455  0.58904104  0.06842368    -0.63460
N1222       N  0.92004087  0.57345920  0.45547438    -0.05290
N1223       N  0.90872931  0.59105095  0.42771461    -0.64150
Mn1224     Mn  0.98075820  0.54643854  0.49797438     1.10660
C1225       C  0.93625304  0.60196659  0.41113614     0.98830
C1226       C  0.93373059  0.59924170  0.08523856     0.98910
N1227       N  0.86691929  0.98590840  0.03906441    -0.06400
N1228       N  0.85015332  0.97440006  0.06698885    -0.61770
N1229       N  0.86604170  0.51867063  0.45493282    -0.05720
N1230       N  0.84766924  0.52996415  0.42780453    -0.58500
N1231       N  0.86675415  0.98629019  0.45513823    -0.07030
N1232       N  0.84904403  0.97489568  0.42809027    -0.61340
N1233       N  0.86568786  0.51828483  0.03874377    -0.06020
N1234       N  0.84791577  0.52949725  0.06637049    -0.58530
Mn1235     Mn  0.89389733  0.95794146  0.49695738     1.20190
Mn1236     Mn  0.89189527  0.54659623  0.49696290     1.10090
Cl1237     Cl  0.93731222  0.50211826  0.49692578    -0.86500
C1238       C  0.83848311  0.50184642  0.08382132     0.95840
C1239       C  0.83714768  0.50237299  0.41130047     0.95630
C1240       C  0.90695065  0.86667073  0.36771590    -0.26850
C1241       C  0.93720575  0.87955533  0.37878985    -0.14920
C1242       C  0.96581306  0.87187912  0.35820952     0.35710
C1243       C  0.96335587  0.85267108  0.32672755    -0.26300
C1244       C  0.93306344  0.84071904  0.31529805    -0.15540
C1245       C  0.90451356  0.84722520  0.33638834     0.36790
N1246       N  0.87264118  0.83545190  0.32646052    -0.89790
H1247       H  0.88478015  0.87200687  0.38327427     0.17910
H1248       H  0.98517502  0.84744549  0.31049367     0.17900
N1249       N  0.99711594  0.88442919  0.36855238    -0.88820
H1250       H  0.86516028  0.81929584  0.34695174     0.35270
H1251       H  0.87350594  0.82195621  0.30236098     0.40370
H1252       H  0.99506836  0.90987272  0.36529586     0.39990
H1253       H  0.51566278  0.87632276  0.35070773     0.34880
C1254       C  0.96356082  0.83863610  0.15576474    -0.26850
C1255       C  0.93718251  0.84267712  0.18018370    -0.14920
C1256       C  0.91147505  0.86525760  0.17172926     0.35710
C1257       C  0.91279439  0.88376628  0.13951741    -0.26300
C1258       C  0.93962261  0.88065086  0.11553621    -0.15540
C1259       C  0.96521980  0.85750792  0.12378887     0.36790
N1260       N  0.99278185  0.85201906  0.10002105    -0.89790
H1261       H  0.98332851  0.82113241  0.16193910     0.17910
H1262       H  0.89280105  0.90095674  0.13344950     0.17900
N1263       N  0.88370243  0.86908825  0.19559150    -0.88820
H1264       H  0.00619165  0.87361720  0.09834837     0.35270
H1265       H  0.98400463  0.84607902  0.07418035     0.40370
H1266       H  0.86245142  0.86386483  0.18087460     0.39990
H1267       H  0.88208966  0.89373686  0.20363083     0.34880
C1268       C  0.96583769  0.63856160  0.36809578    -0.26850
C1269       C  0.93660021  0.62274174  0.37777193    -0.14920
C1270       C  0.90859765  0.62672460  0.35519841     0.35710
C1271       C  0.91061696  0.64625730  0.32368081    -0.26300
C1272       C  0.93990580  0.66167446  0.31392813    -0.15540
C1273       C  0.96789356  0.65796489  0.33654409     0.36790
N1274       N  0.99897765  0.67242804  0.32793098    -0.89790
H1275       H  0.98751177  0.63570293  0.38507941     0.17910
H1276       H  0.88926260  0.64917060  0.30619380     0.17900
N1277       N  0.87839514  0.61055632  0.36379145    -0.88820
H1278       H  0.50385928  0.68973944  0.34808680     0.35270
H1279       H  0.99831710  0.68506361  0.30315747     0.40370
H1280       H  0.88272384  0.58522266  0.36092760     0.39990
H1281       H  0.86000198  0.61700367  0.34502192     0.34880
C1282       C  0.90864129  0.63843959  0.17563694    -0.26850
C1283       C  0.93279052  0.66232977  0.17922878    -0.14920
C1284       C  0.95715443  0.66522751  0.15203806     0.35710
C1285       C  0.95679654  0.64403034  0.12190513    -0.26300
C1286       C  0.93280649  0.61987551  0.11837780    -0.15540
C1287       C  0.90870028  0.61659616  0.14619284     0.36790
N1288       N  0.88494696  0.59078366  0.14671482    -0.89790
H1289       H  0.89032930  0.63575030  0.19691105     0.17910
H1290       H  0.97537660  0.64647584  0.10089698     0.17900
N1291       N  0.98304461  0.68853467  0.15588401    -0.88820
H1292       H  0.88758298  0.57815977  0.17145587     0.35270
H1293       H  0.89004341  0.57299369  0.12707185     0.40370
H1294       H  0.97264174  0.71209006  0.15245123     0.39990
H1295       H  0.00038570  0.68562270  0.13499016     0.34880
C1296       C  0.81453234  0.97298334  0.35800631    -0.26850
C1297       C  0.81549625  0.50188356  0.37885536    -0.14920
C1298       C  0.79588578  0.52950189  0.36831459     0.35710
C1299       C  0.77664651  0.52782407  0.33664505    -0.26300
C1300       C  0.77646591  0.49922344  0.31543391    -0.15540
C1301       C  0.79536324  0.97127997  0.32645919     0.36790
N1302       N  0.79539693  0.94072002  0.30680535    -0.89790
H1303       H  0.82915175  0.95150184  0.36598548     0.17910
H1304       H  0.76208802  0.54915213  0.32803411     0.17900
N1305       N  0.79542903  0.55907996  0.38968656    -0.88820
H1306       H  0.81897337  0.93691217  0.29589868     0.35270
H1307       H  0.77892716  0.94141006  0.28504047     0.40370
H1308       H  0.78466526  0.55350822  0.41479041     0.39990
H1309       H  0.78034261  0.57723725  0.37762593     0.34880
C1310       C  0.80132089  0.47755494  0.17478625    -0.26850
C1311       C  0.77836181  0.50338736  0.18043639    -0.14920
C1312       C  0.77504576  0.02847965  0.15403513     0.35710
C1313       C  0.79495119  0.52755464  0.12275805    -0.26300
C1314       C  0.81799031  0.50177040  0.11714397    -0.15540
C1315       C  0.82126230  0.47650744  0.14351691     0.36790
N1316       N  0.84532785  0.45034764  0.13899194    -0.89790
H1317       H  0.80387962  0.45823724  0.19510384     0.17910
H1318       H  0.79225763  0.04707562  0.10270450     0.17900
N1319       N  0.75214855  0.05537699  0.15932560    -0.88820
H1320       H  0.84422454  0.43363605  0.16067075     0.35270
H1321       H  0.86860609  0.46079213  0.14008152     0.40370
H1322       H  0.73582372  0.05591985  0.13734009     0.39990
H1323       H  0.76526715  0.07722539  0.15890816     0.34880
C1324       C  0.58025288  0.53165314  0.37304078    -0.26850
C1325       C  0.55882711  0.50525822  0.37803208    -0.14920
C1326       C  0.55701129  0.48105729  0.35069776     0.35710
C1327       C  0.57569345  0.48415462  0.31882712    -0.26300
C1328       C  0.59694656  0.51043071  0.31373548    -0.15540
C1329       C  0.59965940  0.53429011  0.34130364     0.36790
N1330       N  0.62165841  0.06122077  0.33678180    -0.89790
H1331       H  0.58191617  0.55022707  0.39400135     0.17910
H1332       H  0.57403585  0.46555627  0.29786264     0.17900
N1333       N  0.53566536  0.45370370  0.35482159    -0.88820
H1334       H  0.62084474  0.57650649  0.35961376     0.35270
H1335       H  0.61319739  0.57540985  0.31476113     0.40370
H1336       H  0.54621591  0.43817426  0.37456916     0.39990
H1337       H  0.53508465  0.93991967  0.33085055     0.34880
C1338       C  0.57985999  0.52421093  0.12047885    -0.26850
C1339       C  0.55591624  0.49991453  0.11763591    -0.14920
C1340       C  0.55267799  0.97661487  0.14632360     0.35710
C1341       C  0.57418388  0.97780119  0.17610075    -0.26300
C1342       C  0.59784970  0.50228019  0.17898426    -0.15540
C1343       C  0.60083005  0.52570667  0.15079593     0.36790
N1344       N  0.62397725  0.55183344  0.15378280    -0.89790
H1345       H  0.58226123  0.54219900  0.09880962     0.17910
H1346       H  0.57148244  0.96014994  0.19807510     0.17900
N1347       N  0.52724083  0.95248157  0.14738957    -0.88820
H1348       H  0.62124396  0.56836925  0.13204530     0.35270
H1349       H  0.64762653  0.54143691  0.15124311     0.40370
H1350       H  0.51005037  0.45610764  0.12672567     0.39990
H1351       H  0.51387847  0.45610150  0.17146811     0.34880
C1352       C  0.61647725  0.50510183  0.71348585     0.02600
C1353       C  0.65097624  0.00272022  0.71412740    -0.13550
C1354       C  0.66882305  0.00682297  0.74686963     0.00100
C1355       C  0.65041815  0.01180255  0.77931010    -0.12080
C1356       C  0.61589401  0.51169627  0.77919420     0.02590
C1357       C  0.59918455  0.50912413  0.74612687    -0.11500
H1358       H  0.66320785  0.99672350  0.68886981     0.08180
H1359       H  0.66224047  0.01490077  0.80524887     0.05710
H1360       H  0.57247125  0.50973407  0.74589191     0.05560
C1361       C  0.75917456  0.00410179  0.71482666     0.02600
C1362       C  0.72462742  0.00677347  0.71460739    -0.13550
C1363       C  0.70608448  0.00509493  0.74728406     0.00100
C1364       C  0.72380295  0.00162161  0.78031724    -0.12080
C1365       C  0.75828789  0.00032107  0.78067482     0.02590
C1366       C  0.77578021  0.00118230  0.74800211    -0.11500
H1367       H  0.71282990  0.00997466  0.68854308     0.08180
H1368       H  0.71156504  0.99936624  0.80624093     0.05710
H1369       H  0.80248846  0.49992856  0.74847326     0.05560
C1370       C  0.93449199  0.68099558  0.71373281     0.02600
C1371       C  0.93748365  0.66369475  0.74655948    -0.13550
C1372       C  0.94019304  0.68047964  0.77941223     0.00040
C1373       C  0.94088383  0.71494462  0.77946708    -0.12080
C1374       C  0.93656169  0.73335604  0.74689634     0.02590
C1375       C  0.93266350  0.71554196  0.71414747    -0.11500
H1376       H  0.93771657  0.63699026  0.74659600     0.08180
H1377       H  0.94454496  0.72664758  0.80538591     0.05710
H1378       H  0.92743640  0.72788336  0.68870462     0.05560
C1379       C  0.93680930  0.82364577  0.71469643     0.02600
C1380       C  0.93870657  0.78907872  0.71452625    -0.13550
C1381       C  0.93569672  0.77058737  0.74715331     0.00100
C1382       C  0.93197478  0.78831890  0.78008555    -0.12080
C1383       C  0.93238397  0.82275831  0.78049482     0.02590
C1384       C  0.93444924  0.84027846  0.74786134    -0.11500
H1385       H  0.94239838  0.77724372  0.68856182     0.08180
H1386       H  0.92886156  0.77609662  0.80593144     0.05710
H1387       H  0.93450558  0.86696958  0.74832890     0.05560
N1388       N  0.50751768  0.51737941  0.53959051    -0.06650
N1389       N  0.52411447  0.52811521  0.56786130    -0.58770
N1390       N  0.50870469  0.98675164  0.95455929    -0.06330
N1391       N  0.52677324  0.97616599  0.92685675    -0.60900
N1392       N  0.50851200  0.51913152  0.95576739    -0.05930
N1393       N  0.52653597  0.53116567  0.92905897    -0.58750
N1394       N  0.50847147  0.98499495  0.53870272    -0.05610
N1395       N  0.52572740  0.97305213  0.56639748    -0.61250
C1396       C  0.53505615  0.50020799  0.58458233     0.95520
C1397       C  0.53774879  0.50410965  0.91112444     0.95300
N1398       N  0.92210259  0.93137896  0.95484943    -0.06840
N1399       N  0.91059041  0.91306311  0.92836980    -0.59350
N1400       N  0.95509226  0.93035398  0.53796116    -0.04960
N1401       N  0.96684897  0.91211925  0.56502339    -0.60600
N1402       N  0.92270375  0.93092527  0.53852767    -0.06870
N1403       N  0.91178073  0.91319518  0.56602345    -0.59620
N1404       N  0.95448530  0.93122429  0.95418319    -0.04600
N1405       N  0.96560188  0.91259627  0.92724073    -0.60690
Mn1406     Mn  0.98257250  0.95755474  0.99613244     1.18440
C1407       C  0.93795016  0.90146614  0.91119971     0.97610
C1408       C  0.93957163  0.90143352  0.58224590     0.98270
N1409       N  0.95242323  0.57359725  0.95606669    -0.06890
N1410       N  0.96376135  0.59124015  0.92870447    -0.63200
N1411       N  0.91902454  0.57260544  0.53931013    -0.05690
N1412       N  0.90677772  0.58943505  0.56704820    -0.63870
N1413       N  0.95140952  0.57235209  0.54007112    -0.06390
N1414       N  0.96185454  0.58904105  0.56842368    -0.63460
N1415       N  0.92004086  0.57345919  0.95547437    -0.05290
N1416       N  0.90872930  0.59105095  0.92771461    -0.64150
Mn1417     Mn  0.98075819  0.54643853  0.99797437     1.10660
C1418       C  0.93625303  0.60196658  0.91113613     0.98830
C1419       C  0.93373059  0.59924170  0.58523857     0.98910
N1420       N  0.86691928  0.98590840  0.53906441    -0.06400
N1421       N  0.85015332  0.97440005  0.56698884    -0.61770
N1422       N  0.86604169  0.51867063  0.95493283    -0.05720
N1423       N  0.84766923  0.52996415  0.92780453    -0.58500
N1424       N  0.86675415  0.98629019  0.95513824    -0.07030
N1425       N  0.84904403  0.97489568  0.92809028    -0.61340
N1426       N  0.86568787  0.51828483  0.53874377    -0.06020
N1427       N  0.84791577  0.52949725  0.56637048    -0.58530
Mn1428     Mn  0.89389733  0.95794147  0.99695738     1.20190
Mn1429     Mn  0.89189527  0.54659622  0.99696290     1.10090
Cl1430     Cl  0.93731221  0.50211825  0.99692578    -0.86500
C1431       C  0.83848312  0.50184642  0.58382131     0.95840
C1432       C  0.83714767  0.50237299  0.91130047     0.95630
C1433       C  0.90695065  0.86667068  0.86771594    -0.26850
C1434       C  0.93720573  0.87955533  0.87878985    -0.14920
C1435       C  0.96581303  0.87187919  0.85820948     0.35710
C1436       C  0.96335584  0.85267114  0.82672751    -0.26300
C1437       C  0.93306343  0.84071904  0.81529805    -0.15540
C1438       C  0.90451355  0.84722515  0.83638838     0.36790
N1439       N  0.87264118  0.83545179  0.82646060    -0.89790
H1440       H  0.88478016  0.87200677  0.88327435     0.17910
H1441       H  0.98517498  0.84744559  0.81049359     0.17900
N1442       N  0.99711589  0.88442932  0.86855228    -0.88820
H1443       H  0.86516034  0.81929571  0.84695182     0.35270
H1444       H  0.87350594  0.82195612  0.80236106     0.40370
H1445       H  0.99506824  0.90987285  0.86529577     0.39990
H1446       H  0.51566272  0.87632295  0.85070759     0.34880
C1447       C  0.96356082  0.83863610  0.65576474    -0.26850
C1448       C  0.93718251  0.84267712  0.68018370    -0.14920
C1449       C  0.91147504  0.86525760  0.67172926     0.35710
C1450       C  0.91279439  0.88376627  0.63951741    -0.26300
C1451       C  0.93962261  0.88065086  0.61553621    -0.15540
C1452       C  0.96521980  0.85750792  0.62378888     0.36790
N1453       N  0.99278185  0.85201906  0.60002106    -0.89790
H1454       H  0.98332851  0.82113242  0.66193911     0.17910
H1455       H  0.89280104  0.90095673  0.63344950     0.17900
N1456       N  0.88370242  0.86908825  0.69559149    -0.88820
H1457       H  0.00619165  0.87361720  0.59834838     0.35270
H1458       H  0.98400463  0.84607902  0.57418036     0.40370
H1459       H  0.86245142  0.86386482  0.68087459     0.39990
H1460       H  0.88208964  0.89373685  0.70363082     0.34880
C1461       C  0.96583768  0.63856159  0.86809577    -0.26850
C1462       C  0.93660020  0.62274174  0.87777193    -0.14920
C1463       C  0.90859763  0.62672461  0.85519841     0.35710
C1464       C  0.91061694  0.64625731  0.82368082    -0.26300
C1465       C  0.93990578  0.66167446  0.81392813    -0.15540
C1466       C  0.96789355  0.65796488  0.83654409     0.36790
N1467       N  0.99897764  0.67242803  0.82793097    -0.89790
H1468       H  0.98751177  0.63570291  0.88507939     0.17910
H1469       H  0.88926258  0.64917062  0.80619381     0.17900
N1470       N  0.87839512  0.61055633  0.86379147    -0.88820
H1471       H  0.50385929  0.68973942  0.84808679     0.35270
H1472       H  0.99831709  0.68506360  0.80315746     0.40370
H1473       H  0.88272381  0.58522268  0.86092761     0.39990
H1474       H  0.86000196  0.61700369  0.84502193     0.34880
C1475       C  0.90864127  0.63843959  0.67563694    -0.26850
C1476       C  0.93279051  0.66232977  0.67922879    -0.14920
C1477       C  0.95715442  0.66522752  0.65203807     0.35710
C1478       C  0.95679653  0.64403034  0.62190513    -0.26300
C1479       C  0.93280648  0.61987552  0.61837780    -0.15540
C1480       C  0.90870027  0.61659616  0.64619284     0.36790
N1481       N  0.88494696  0.59078365  0.64671482    -0.89790
H1482       H  0.89032929  0.63575030  0.69691105     0.17910
H1483       H  0.97537659  0.64647584  0.60089698     0.17900
N1484       N  0.98304459  0.68853467  0.65588401    -0.88820
H1485       H  0.88758297  0.57815977  0.67145587     0.35270
H1486       H  0.89004340  0.57299369  0.62707185     0.40370
H1487       H  0.97264172  0.71209007  0.65245123     0.39990
H1488       H  0.00038569  0.68562270  0.63499016     0.34880
C1489       C  0.81453233  0.97298334  0.85800632    -0.26850
C1490       C  0.81549625  0.50188356  0.87885536    -0.14920
C1491       C  0.79588577  0.52950189  0.86831459     0.35710
C1492       C  0.77664651  0.52782408  0.83664505    -0.26300
C1493       C  0.77646591  0.49922344  0.81543390    -0.15540
C1494       C  0.79536323  0.97127998  0.82645920     0.36790
N1495       N  0.79539691  0.94072002  0.80680537    -0.89790
H1496       H  0.82915173  0.95150184  0.86598550     0.17910
H1497       H  0.76208802  0.54915213  0.82803411     0.17900
N1498       N  0.79542902  0.55907996  0.88968656    -0.88820
H1499       H  0.81897335  0.93691215  0.79589870     0.35270
H1500       H  0.77892714  0.94141005  0.78504048     0.40370
H1501       H  0.78466524  0.55350821  0.91479041     0.39990
H1502       H  0.78034260  0.57723724  0.87762594     0.34880
C1503       C  0.80132088  0.47755494  0.67478624    -0.26850
C1504       C  0.77836182  0.50338736  0.68043638    -0.14920
C1505       C  0.77504576  0.02847965  0.65403513     0.35710
C1506       C  0.79495120  0.52755464  0.62275805    -0.26300
C1507       C  0.81799031  0.50177040  0.61714397    -0.15540
C1508       C  0.82126230  0.47650744  0.64351690     0.36790
N1509       N  0.84532783  0.45034763  0.63899192    -0.89790
H1510       H  0.80387961  0.45823724  0.69510383     0.17910
H1511       H  0.79225764  0.04707562  0.60270450     0.17900
N1512       N  0.75214856  0.05537699  0.65932560    -0.88820
H1513       H  0.84422452  0.43363604  0.66067073     0.35270
H1514       H  0.86860607  0.46079211  0.64008151     0.40370
H1515       H  0.73582373  0.05591986  0.63734010     0.39990
H1516       H  0.76526716  0.07722539  0.65890816     0.34880
C1517       C  0.58025284  0.53165316  0.87304076    -0.26850
C1518       C  0.55882713  0.50525820  0.87803209    -0.14920
C1519       C  0.55701137  0.48105723  0.85069780     0.35710
C1520       C  0.57569353  0.48415457  0.81882716    -0.26300
C1521       C  0.59694658  0.51043071  0.81373549    -0.15540
C1522       C  0.59965937  0.53429014  0.84130361     0.36790
N1523       N  0.62165841  0.06122078  0.83678181    -0.89790
H1524       H  0.58191609  0.55022712  0.89400130     0.17910
H1525       H  0.57403597  0.46555619  0.79786270     0.17900
N1526       N  0.53566551  0.45370360  0.85482167    -0.88820
H1527       H  0.62084463  0.57650657  0.85961368     0.35270
H1528       H  0.61319729  0.57540988  0.81476105     0.40370
H1529       H  0.54621607  0.43817421  0.87456927     0.39990
H1530       H  0.53508466  0.93991968  0.83085054     0.34880
C1531       C  0.57985998  0.52421093  0.62047887    -0.26850
C1532       C  0.55591624  0.49991452  0.61763592    -0.14920
C1533       C  0.55267799  0.97661489  0.64632360     0.35710
C1534       C  0.57418388  0.97780121  0.67610076    -0.26300
C1535       C  0.59784970  0.50228018  0.67898426    -0.15540
C1536       C  0.60083004  0.52570667  0.65079594     0.36790
N1537       N  0.62397723  0.55183345  0.65378282    -0.89790
H1538       H  0.58226121  0.54219901  0.59880964     0.17910
H1539       H  0.57148245  0.96014996  0.69807511     0.17900
N1540       N  0.52724083  0.95248158  0.64738958    -0.88820
H1541       H  0.62124393  0.56836927  0.63204533     0.35270
H1542       H  0.64762651  0.54143693  0.65124313     0.40370
H1543       H  0.51005038  0.45610761  0.62672567     0.39990
H1544       H  0.51387849  0.45610146  0.67146810     0.34880
loop_ 
_geom_bond_atom_site_label_1 
_geom_bond_atom_site_label_2 
_geom_bond_distance 
_geom_bond_site_symmetry_2 
_ccdc_geom_bond_type 
C1            C6   1.396       .  A
C1          C388   1.403       .  A
C1          C184   1.483       .  S
C2            C3   1.418       .  A
C2          C387   1.403       .  A
C2            H7   1.077       .  S
C3            C4   1.418       .  A
C3           C12   1.513       .  S
C4          C391   1.402       .  A
C4            H8   1.077       .  S
C5            C6   1.398       .  A
C5          C390   1.402       .  A
C5          C170   1.484       .  S
C6            H9   1.084       .  S
C10          C11   1.405       .  A
C10          C15   1.397       .  A
C10         C539   1.483       .  S
C11          C12   1.418       .  A
C11          H16   1.077       .  S
C12          C13   1.417       .  A
C13          C14   1.400       .  A
C13          H17   1.078       .  S
C14          C15   1.394       .  A
C14         C528   1.476       .  S
C15         H404   1.084       .  S
H18         C401   1.084   1_565  S
C19          C20   1.397       .  A
C19          C24   1.404       .  A
C19         C125   1.482       .  S
C20          C21   1.394       .  A
C20          H25   1.085       .  S
C21          C22   1.401       .  A
C21         C114   1.477       .  S
C22          C23   1.417       .  A
C22          H26   1.078       .  S
C23          C24   1.417       .  A
C23          C30   1.512       .  S
C24          H27   1.078       .  S
C28          C29   1.404       .  A
C28          C33   1.397       .  A
C28          C97   1.482       .  S
C29          C30   1.418       .  A
C29          H34   1.078       .  S
C30          C31   1.416       .  A
C31          C32   1.399       .  A
C31          H35   1.078       .  S
C32          C33   1.395       .  A
C32          C86   1.475       .  S
C33          H36   1.084       .  S
N37          N38   1.320       .  A
N37         N429   1.316   1_545  A
N37       Mn1031   2.201   1_454  S
N38          C45   1.353       .  A
N39          N40   1.321       .  A
N39         N427   1.316       .  A
N39        Mn827   2.213   1_455  S
N40         C432   1.355       .  A
N41          N42   1.321       .  A
N41         N425   1.316   1_545  A
N41        Mn838   2.203   1_455  S
N42          C46   1.353       .  A
N43          N44   1.321       .  A
N43         N423   1.316       .  A
N43       Mn1020   2.206   1_454  S
N44         C431   1.354       .  A
C45         C181   1.482   1_545  S
C45         N430   1.354   1_545  A
C46         C167   1.486       .  S
C46         N426   1.355   1_545  A
N47          N53   1.315       .  A
N47          N48   1.320       .  A
N47         Mn77   2.195       .  S
N48          C56   1.353       .  A
N49          N50   1.321       .  A
N49          N51   1.315       .  A
N49        Mn248   2.205   1_554  S
N50          C57   1.353       .  A
N51          N52   1.320       .  A
N51        Mn270   2.200   1_554  S
N52          C57   1.354       .  A
N53          N54   1.321       .  A
N53         Mn55   2.213       .  S
N54          C56   1.357       .  A
Mn55        N811   2.213       .  S
Mn55       N1008   2.206       .  S
Mn55        N242   2.205       .  S
Mn55       Cl465   2.550       .  S
C56          C83   1.490       .  S
C57         C100   1.483       .  S
N58          N59   1.320       .  A
N58          N64   1.315       .  A
N58         Mn66   2.201       .  S
N59          C67   1.354       .  A
N60          N62   1.315       .  A
N60          N61   1.319       .  A
N60        Mn271   2.196   1_554  S
N61          C68   1.352       .  A
N62          N63   1.321       .  A
N62        Mn259   2.206   1_554  S
N63          C68   1.355       .  A
N64          N65   1.320       .  A
N64         Mn78   2.203       .  S
N65          C67   1.354       .  A
Mn66       N1002   2.201       .  S
Mn66        N813   2.203       .  S
Mn66        N255   2.206       .  S
Mn66        Cl79   2.549       .  S
C67         C111   1.485       .  S
C68         C128   1.481       .  S
N69          N70   1.320       .  A
N69         N461   1.315       .  A
N69        Mn270   2.198   1_554  S
N70         C466   1.353       .  A
N71          N72   1.320       .  A
N71         N459   1.315   1_545  A
N71         Mn78   2.202       .  S
N72          C81   1.354       .  A
N73          N74   1.319       .  A
N73         N457   1.315       .  A
N73         Mn77   2.199       .  S
N74         C467   1.353       .  A
N75          N76   1.320       .  A
N75         N455   1.315   1_545  A
N75        Mn271   2.201   1_554  S
N76          C80   1.353       .  A
Mn77        N244   2.200       .  S
Mn77        N262   2.198       .  S
Mn77       Cl465   2.544       .  S
Mn78        N253   2.196       .  S
Mn78        N268   2.201       .  S
Mn78        Cl79   2.552       .  S
Cl79       Mn441   2.550   1_545  S
Cl79       Mn463   2.544   1_545  S
C80         C156   1.479       .  S
C80         N456   1.353   1_545  A
C81         C139   1.483       .  S
C81         N460   1.353   1_545  A
C82          C83   1.408       .  A
C82          C87   1.403       .  A
C82          H89   1.083       .  S
C83          C84   1.414       .  A
C84          C85   1.403       .  A
C84          N91   1.433       .  S
C85          C86   1.399       .  A
C85          H90   1.084       .  S
C86          C87   1.413       .  A
C87          N88   1.438       .  S
N88          H92   1.046       .  S
N88          H93   1.043       .  S
N91          H94   1.041       .  S
N91         H867   1.046       .  S
H95         N863   1.046   1_455  S
C96          C97   1.403       .  A
C96         C101   1.402       .  A
C96         H103   1.084       .  S
C97          C98   1.408       .  A
C98          C99   1.401       .  A
C98         N105   1.433       .  S
C99         C100   1.403       .  A
C99         H104   1.082       .  S
C100        C101   1.418       .  A
C101        N102   1.432       .  S
N102        H106   1.045       .  S
N102        H107   1.046       .  S
N105        H108   1.046       .  S
N105        H109   1.046       .  S
C110        C111   1.407       .  A
C110        C115   1.402       .  A
C110        H117   1.084       .  S
C111        C112   1.415       .  A
C112        C113   1.404       .  A
C112        N119   1.438       .  S
C113        C114   1.402       .  A
C113        H118   1.084       .  S
C114        C115   1.414       .  A
C115        N116   1.438       .  S
N116        H121   1.043       .  S
N116        H892   1.046       .  S
N119        H122   1.046       .  S
N119        H123   1.046       .  S
H120        N888   1.046   1_455  S
C124        C125   1.402       .  A
C124        C129   1.402       .  A
C124        H131   1.084       .  S
C125        C126   1.411       .  A
C126        C127   1.405       .  A
C126        N133   1.438       .  S
C127        C128   1.405       .  A
C127        H132   1.084       .  S
C128        C129   1.421       .  A
C129        N130   1.441       .  S
N130        H134   1.046       .  S
N130        H135   1.040       .  S
N133        H136   1.044       .  S
N133        H137   1.046       .  S
C138        C143   1.400       .  A
C138        C525   1.406       .  A
C138        H145   1.084       .  S
C139        C140   1.414       .  A
C139        C524   1.406   1_545  A
C140        C141   1.405       .  A
C140        N147   1.438       .  S
C141        C142   1.402   1_545  A
C141        H146   1.084       .  S
C142        C529   1.414       .  A
C142        C400   1.476   1_565  S
C143        C528   1.414       .  A
C143        N144   1.439       .  S
N144        H148   1.045       .  S
N144        H149   1.043       .  S
N147        H150   1.046       .  S
N147        H151   1.046       .  S
C152        C153   1.403   1_565  A
C152        C157   1.404       .  A
C152        H159   1.084       .  S
C153        C540   1.408       .  A
C153        C396   1.483       .  S
C154        C539   1.408       .  A
C154        C541   1.403       .  A
C154        N161   1.432       .  S
C155        C156   1.404       .  A
C155        C540   1.403       .  A
C155        H546   1.084       .  S
C156        C157   1.412   1_545  A
C157        N158   1.437       .  S
N158        H162   1.046       .  S
N158        H163   1.046       .  S
H160        C541   1.084       .  S
N161        H164   1.046       .  S
N161        H165   1.045       .  S
C166        C167   1.407       .  A
C166        C171   1.411       .  A
C166        H173   1.083       .  S
C167        C168   1.411   1_545  A
C168        C169   1.400       .  A
C168        N175   1.432       .  S
C169        C170   1.399   1_565  A
C169        H174   1.084       .  S
C170        C171   1.411       .  A
C171        N558   1.437       .  S
N172        C557   1.437       .  S
N172        H562   1.046       .  S
N172        H563   1.045       .  S
N175        H178   1.045       .  S
N175        H565   1.046       .  S
H176        N558   1.046       .  S
H177        N558   1.045       .  S
H179        N561   1.046       .  S
C180        C181   1.405   1_545  A
C180        C185   1.406       .  A
C180        H187   1.084       .  S
C181        C568   1.421       .  A
C182        C183   1.403       .  A
C182        C567   1.421       .  A
C182        N189   1.440       .  S
C183        C570   1.403       .  A
C183        H188   1.084       .  S
C184        C185   1.410       .  A
C184        C569   1.403   1_545  A
C185        N186   1.438       .  S
N186        H190   1.046       .  S
N186        H191   1.044       .  S
N189        H578   1.040       .  S
N189        H579   1.046       .  S
H192        N575   1.040       .  S
H193        N575   1.046       .  S
C194        C581   1.403       .  A
C194        C199   1.396       .  A
C194        C377   1.483       .  S
C195        C580   1.403       .  A
C195        C196   1.418       .  A
C195        H200   1.077       .  S
C196        C197   1.418       .  A
C196        C205   1.513       .  S
C197        C584   1.402       .  A
C197        H201   1.077       .  S
C198        C583   1.402       .  A
C198        C199   1.398       .  A
C198        C363   1.484       .  S
C199        H202   1.084       .  S
C203        C204   1.405       .  A
C203        C208   1.397       .  A
C203        C732   1.483       .  S
C204        C205   1.418       .  A
C204        H209   1.077       .  S
C205        C206   1.417       .  A
C206        C207   1.400       .  A
C206        H210   1.078       .  S
C207        C208   1.394       .  A
C207        C721   1.476       .  S
C208        H597   1.084       .  S
H211        C594   1.084   1_565  S
C212        C213   1.397       .  A
C212        C217   1.404       .  A
C212        C318   1.482       .  S
C213        C214   1.394       .  A
C213        H218   1.085       .  S
C214        C215   1.401       .  A
C214        C307   1.477       .  S
C215        C216   1.417       .  A
C215        H219   1.078       .  S
C216        C217   1.417       .  A
C216        C223   1.512       .  S
C217        H220   1.078       .  S
C221        C222   1.404       .  A
C221        C226   1.397       .  A
C221        C290   1.482       .  S
C222        C223   1.418       .  A
C222        H227   1.078       .  S
C223        C224   1.416       .  A
C224        C225   1.399       .  A
C224        H228   1.078       .  S
C225        C226   1.395       .  A
C225        C279   1.475       .  S
C226        H229   1.084       .  S
N230        N231   1.320       .  A
N230        N622   1.316   1_545  A
N230       Mn838   2.201   1_455  S
N231        C238   1.353       .  A
N232        N620   1.316       .  A
N232        N233   1.321       .  A
N232      Mn1020   2.213   1_455  S
N233        C625   1.355       .  A
N234        N618   1.316   1_545  A
N234        N235   1.321       .  A
N234      Mn1031   2.203   1_455  S
N235        C239   1.353       .  A
N236        N616   1.316       .  A
N236        N237   1.321       .  A
N236       Mn827   2.206   1_455  S
N237        C624   1.354       .  A
C238        C374   1.482   1_545  S
C238        N623   1.354   1_545  A
C239        C360   1.486       .  S
C239        N619   1.355   1_545  A
N240        N246   1.315       .  A
N240        N241   1.320       .  A
N240       Mn270   2.195       .  S
N241        C249   1.353       .  A
N242        N243   1.321       .  A
N242        N244   1.315       .  A
N243        C250   1.353       .  A
N244        N245   1.320       .  A
N245        C250   1.354       .  A
N246        N247   1.321       .  A
N246       Mn248   2.213       .  S
N247        C249   1.357       .  A
Mn248      N1004   2.213       .  S
Mn248       N815   2.206   1_556  S
Mn248      Cl658   2.550       .  S
C249        C276   1.490       .  S
C250        C293   1.483       .  S
N251        N252   1.320       .  A
N251        N257   1.315       .  A
N251       Mn259   2.201       .  S
N252        C260   1.354       .  A
N253        N255   1.315       .  A
N253        N254   1.319       .  A
N254        C261   1.352       .  A
N255        N256   1.321       .  A
N256        C261   1.355       .  A
N257        N258   1.320       .  A
N257       Mn271   2.203       .  S
N258        C260   1.354       .  A
Mn259       N809   2.201   1_556  S
Mn259      N1006   2.203       .  S
Mn259      Cl272   2.549       .  S
C260        C304   1.485       .  S
C261        C321   1.481       .  S
N262        N263   1.320       .  A
N262        N654   1.315       .  A
N263        C659   1.353       .  A
N264        N265   1.320       .  A
N264        N652   1.315   1_545  A
N264       Mn271   2.202       .  S
N265        C274   1.354       .  A
N266        N650   1.315       .  A
N266        N267   1.319       .  A
N266       Mn270   2.199       .  S
N267        C660   1.353       .  A
N268        N648   1.315   1_545  A
N268        N269   1.320       .  A
N269        C273   1.353       .  A
Mn270      Cl658   2.544       .  S
Mn271      Cl272   2.552       .  S
Cl272      Mn634   2.550   1_545  S
Cl272      Mn656   2.544   1_545  S
C273        C349   1.479       .  S
C273        N649   1.353   1_545  A
C274        C332   1.483       .  S
C274        N653   1.353   1_545  A
C275        C276   1.408       .  A
C275        C280   1.403       .  A
C275        H282   1.083       .  S
C276        C277   1.414       .  A
C277        C278   1.403       .  A
C277        N284   1.433       .  S
C278        C279   1.399       .  A
C278        H283   1.084       .  S
C279        C280   1.413       .  A
C280        N281   1.438       .  S
N281        H285   1.046       .  S
N281        H286   1.043       .  S
N284        H287   1.041       .  S
N284       H1060   1.046       .  S
H288       N1056   1.046   1_455  S
C289        C290   1.403       .  A
C289        C294   1.402       .  A
C289        H296   1.084       .  S
C290        C291   1.408       .  A
C291        C292   1.401       .  A
C291        N298   1.433       .  S
C292        C293   1.403       .  A
C292        H297   1.082       .  S
C293        C294   1.418       .  A
C294        N295   1.432       .  S
N295        H299   1.045       .  S
N295        H300   1.046       .  S
N298        H301   1.046       .  S
N298        H302   1.046       .  S
C303        C304   1.407       .  A
C303        C308   1.402       .  A
C303        H310   1.084       .  S
C304        C305   1.415       .  A
C305        C306   1.404       .  A
C305        N312   1.438       .  S
C306        C307   1.402       .  A
C306        H311   1.084       .  S
C307        C308   1.414       .  A
C308        N309   1.438       .  S
N309       H1085   1.046       .  S
N309        H314   1.043       .  S
N312        H315   1.046       .  S
N312        H316   1.046       .  S
H313       N1081   1.046   1_455  S
C317        C318   1.402       .  A
C317        C322   1.402       .  A
C317        H324   1.084       .  S
C318        C319   1.411       .  A
C319        C320   1.405       .  A
C319        N326   1.438       .  S
C320        C321   1.405       .  A
C320        H325   1.084       .  S
C321        C322   1.421       .  A
C322        N323   1.441       .  S
N323        H327   1.046       .  S
N323        H328   1.040       .  S
N326        H329   1.044       .  S
N326        H330   1.046       .  S
C331        C718   1.406       .  A
C331        C336   1.400       .  A
C331        H338   1.084       .  S
C332        C717   1.406   1_545  A
C332        C333   1.414       .  A
C333        C334   1.405       .  A
C333        N340   1.438       .  S
C334        C335   1.402   1_545  A
C334        H339   1.084       .  S
C335        C722   1.414       .  A
C335        C593   1.476   1_565  S
C336        C721   1.414       .  A
C336        N337   1.439       .  S
N337        H341   1.045       .  S
N337        H342   1.043       .  S
N340        H343   1.046       .  S
N340        H344   1.046       .  S
C345        C346   1.403   1_565  A
C345        C350   1.404       .  A
C345        H352   1.084       .  S
C346        C733   1.408       .  A
C346        C589   1.483       .  S
C347        C732   1.408       .  A
C347        C734   1.403       .  A
C347        N354   1.432       .  S
C348        C733   1.403       .  A
C348        C349   1.404       .  A
C348        H739   1.084       .  S
C349        C350   1.412   1_545  A
C350        N351   1.437       .  S
N351        H355   1.046       .  S
N351        H356   1.046       .  S
H353        C734   1.084       .  S
N354        H357   1.046       .  S
N354        H358   1.045       .  S
C359        C360   1.407       .  A
C359        C364   1.411       .  A
C359        H366   1.083       .  S
C360        C361   1.411   1_545  A
C361        C362   1.400       .  A
C361        N368   1.432       .  S
C362        C363   1.399   1_565  A
C362        H367   1.084       .  S
C363        C364   1.411       .  A
C364        N751   1.437       .  S
N365        C750   1.437       .  S
N365        H755   1.046       .  S
N365        H756   1.045       .  S
N368        H371   1.045       .  S
N368        H758   1.046       .  S
H369        N751   1.046       .  S
H370        N751   1.045       .  S
H372        N754   1.046       .  S
C373        C374   1.405   1_545  A
C373        C378   1.406       .  A
C373        H380   1.084       .  S
C374        C761   1.421       .  A
C375        C760   1.421       .  A
C375        C376   1.403       .  A
C375        N382   1.440       .  S
C376        C763   1.403       .  A
C376        H381   1.084       .  S
C377        C762   1.403   1_545  A
C377        C378   1.410       .  A
C378        N379   1.438       .  S
N379        H383   1.046       .  S
N379        H384   1.044       .  S
N382        H771   1.040       .  S
N382        H772   1.046       .  S
H385        N768   1.040       .  S
H386        N768   1.046       .  S
C387        C392   1.396       .  A
C387        C570   1.483       .  S
C388        C389   1.418       .  A
C388        H393   1.077   1_545  S
C389        C390   1.418       .  A
C389        C398   1.513       .  S
C390        H394   1.077       .  S
C391        C392   1.398       .  A
C391        C556   1.484       .  S
C392        H395   1.084       .  S
C396        C397   1.405       .  A
C396        C401   1.397       .  A
C397        C398   1.418       .  A
C397        H402   1.077       .  S
C398        C399   1.417       .  A
C399        C400   1.400       .  A
C399        H403   1.078   1_545  S
C400        C401   1.394       .  A
C405        C406   1.397       .  A
C405        C410   1.404       .  A
C405        C511   1.482       .  S
C406        C407   1.394       .  A
C406        H411   1.085       .  S
C407        C408   1.401       .  A
C407        C500   1.477       .  S
C408        C409   1.417       .  A
C408        H412   1.078       .  S
C409        C410   1.417       .  A
C409        C416   1.512       .  S
C410        H413   1.078       .  S
C414        C415   1.404       .  A
C414        C419   1.397       .  A
C414        C483   1.482       .  S
C415        C416   1.418       .  A
C415        H420   1.078       .  S
C416        C417   1.416       .  A
C417        C418   1.399       .  A
C417        H421   1.078       .  S
C418        C419   1.395       .  A
C418        C472   1.475       .  S
C419        H422   1.084       .  S
N423        N424   1.320       .  A
N423      Mn1417   2.201   1_454  S
N424        C431   1.353       .  A
N425        N426   1.321       .  A
N425      Mn1213   2.213   1_455  S
N427        N428   1.321       .  A
N427      Mn1224   2.203   1_455  S
N428        C432   1.353       .  A
N429        N430   1.321       .  A
N429      Mn1406   2.206   1_454  S
C431        C567   1.482       .  S
C432        C553   1.486       .  S
N433        N439   1.315       .  A
N433        N434   1.320       .  A
N433       Mn463   2.195       .  S
N434        C442   1.353       .  A
N435        N436   1.321       .  A
N435        N437   1.315       .  A
N435       Mn634   2.205   1_554  S
N436        C443   1.353       .  A
N437        N438   1.320       .  A
N437       Mn656   2.200   1_554  S
N438        C443   1.354       .  A
N439        N440   1.321       .  A
N439       Mn441   2.213       .  S
N440        C442   1.357       .  A
Mn441      N1197   2.213       .  S
Mn441      N1394   2.206       .  S
Mn441       N628   2.205       .  S
C442        C469   1.490       .  S
C443        C486   1.483       .  S
N444        N445   1.320       .  A
N444        N450   1.315       .  A
N444       Mn452   2.201       .  S
N445        C453   1.354       .  A
N446        N448   1.315       .  A
N446        N447   1.319       .  A
N446       Mn657   2.196   1_554  S
N447        C454   1.352       .  A
N448        N449   1.321       .  A
N448       Mn645   2.206   1_554  S
N449        C454   1.355       .  A
N450        N451   1.320       .  A
N450       Mn464   2.203       .  S
N451        C453   1.354       .  A
Mn452      N1388   2.201       .  S
Mn452      N1199   2.203       .  S
Mn452       N641   2.206       .  S
Mn452      Cl465   2.549       .  S
C453        C497   1.485       .  S
C454        C514   1.481       .  S
N455        N456   1.320       .  A
N455       Mn656   2.198   1_554  S
N457        N458   1.320       .  A
N457       Mn464   2.202       .  S
N458        C467   1.354       .  A
N459        N460   1.319       .  A
N459       Mn463   2.199       .  S
N461        N462   1.320       .  A
N461       Mn657   2.201   1_554  S
N462        C466   1.353       .  A
Mn463       N630   2.200       .  S
Mn463       N648   2.198       .  S
Mn464       N639   2.196       .  S
Mn464       N654   2.201       .  S
Mn464      Cl465   2.552       .  S
C466        C542   1.479       .  S
C467        C525   1.483       .  S
C468        C469   1.408       .  A
C468        C473   1.403       .  A
C468        H475   1.083       .  S
C469        C470   1.414       .  A
C470        C471   1.403       .  A
C470        N477   1.433       .  S
C471        C472   1.399       .  A
C471        H476   1.084       .  S
C472        C473   1.413       .  A
C473        N474   1.438       .  S
N474        H478   1.046       .  S
N474        H479   1.043       .  S
N477        H480   1.041       .  S
N477       H1253   1.046       .  S
H481       N1249   1.046   1_455  S
C482        C483   1.403       .  A
C482        C487   1.402       .  A
C482        H489   1.084       .  S
C483        C484   1.408       .  A
C484        C485   1.401       .  A
C484        N491   1.433       .  S
C485        C486   1.403       .  A
C485        H490   1.082       .  S
C486        C487   1.418       .  A
C487        N488   1.432       .  S
N488        H492   1.045       .  S
N488        H493   1.046       .  S
N491        H494   1.046       .  S
N491        H495   1.046       .  S
C496        C497   1.407       .  A
C496        C501   1.402       .  A
C496        H503   1.084       .  S
C497        C498   1.415       .  A
C498        C499   1.404       .  A
C498        N505   1.438       .  S
C499        C500   1.402       .  A
C499        H504   1.084       .  S
C500        C501   1.414       .  A
C501        N502   1.438       .  S
N502       H1278   1.046       .  S
N502        H507   1.043       .  S
N505        H508   1.046       .  S
N505        H509   1.046       .  S
H506       N1274   1.046   1_455  S
C510        C511   1.402       .  A
C510        C515   1.402       .  A
C510        H517   1.084       .  S
C511        C512   1.411       .  A
C512        C513   1.405       .  A
C512        N519   1.438       .  S
C513        C514   1.405       .  A
C513        H518   1.084       .  S
C514        C515   1.421       .  A
C515        N516   1.441       .  S
N516        H520   1.046       .  S
N516        H521   1.040       .  S
N519        H522   1.044       .  S
N519        H523   1.046       .  S
C524        C529   1.400       .  A
C524        H531   1.084       .  S
C525        C526   1.414       .  A
C526        C527   1.405       .  A
C526        N533   1.438       .  S
C527        C528   1.402       .  A
C527        H532   1.084       .  S
C529        N530   1.439       .  S
N530        H534   1.045       .  S
N530        H535   1.043       .  S
N533        H536   1.046       .  S
N533        H537   1.046       .  S
C538        C539   1.403       .  A
C538        C543   1.404       .  A
C538        H545   1.084       .  S
C540        N547   1.432       .  S
C541        C542   1.404       .  A
C542        C543   1.412       .  A
C543        N544   1.437       .  S
N544        H548   1.046       .  S
N544        H549   1.046       .  S
N547        H550   1.046       .  S
N547        H551   1.045       .  S
C552        C553   1.407       .  A
C552        C557   1.411       .  A
C552        H559   1.083       .  S
C553        C554   1.411       .  A
C554        C555   1.400       .  A
C554        N561   1.432       .  S
C555        C556   1.399       .  A
C555        H560   1.084       .  S
C556        C557   1.411       .  A
N561        H564   1.045       .  S
C566        C567   1.405       .  A
C566        C571   1.406       .  A
C566        H573   1.084       .  S
C568        C569   1.403       .  A
C568        N575   1.440       .  S
C569        H574   1.084       .  S
C570        C571   1.410       .  A
C571        N572   1.438       .  S
N572        H576   1.046       .  S
N572        H577   1.044       .  S
C580        C585   1.396       .  A
C580        C763   1.483       .  S
C581        C582   1.418       .  A
C581        H586   1.077   1_545  S
C582        C583   1.418       .  A
C582        C591   1.513       .  S
C583        H587   1.077       .  S
C584        C585   1.398       .  A
C584        C749   1.484       .  S
C585        H588   1.084       .  S
C589        C590   1.405       .  A
C589        C594   1.397       .  A
C590        C591   1.418       .  A
C590        H595   1.077       .  S
C591        C592   1.417       .  A
C592        C593   1.400       .  A
C592        H596   1.078   1_545  S
C593        C594   1.394       .  A
C598        C599   1.397       .  A
C598        C603   1.404       .  A
C598        C704   1.482       .  S
C599        C600   1.394       .  A
C599        H604   1.085       .  S
C600        C601   1.401       .  A
C600        C693   1.477       .  S
C601        C602   1.417       .  A
C601        H605   1.078       .  S
C602        C603   1.417       .  A
C602        C609   1.512       .  S
C603        H606   1.078       .  S
C607        C608   1.404       .  A
C607        C612   1.397       .  A
C607        C676   1.482       .  S
C608        C609   1.418       .  A
C608        H613   1.078       .  S
C609        C610   1.416       .  A
C610        C611   1.399       .  A
C610        H614   1.078       .  S
C611        C612   1.395       .  A
C611        C665   1.475       .  S
C612        H615   1.084       .  S
N616        N617   1.320       .  A
N616      Mn1224   2.201   1_455  S
N617        C624   1.353       .  A
N618        N619   1.321       .  A
N618      Mn1406   2.213   1_455  S
N620        N621   1.321       .  A
N620      Mn1417   2.203   1_455  S
N621        C625   1.353       .  A
N622        N623   1.321       .  A
N622      Mn1213   2.206   1_455  S
C624        C760   1.482       .  S
C625        C746   1.486       .  S
N626        N632   1.315       .  A
N626        N627   1.320       .  A
N626       Mn656   2.195       .  S
N627        C635   1.353       .  A
N628        N629   1.321       .  A
N628        N630   1.315       .  A
N629        C636   1.353       .  A
N630        N631   1.320       .  A
N631        C636   1.354       .  A
N632        N633   1.321       .  A
N632       Mn634   2.213       .  S
N633        C635   1.357       .  A
Mn634      N1390   2.213       .  S
Mn634      N1201   2.206   1_556  S
C635        C662   1.490       .  S
C636        C679   1.483       .  S
N637        N638   1.320       .  A
N637        N643   1.315       .  A
N637       Mn645   2.201       .  S
N638        C646   1.354       .  A
N639        N641   1.315       .  A
N639        N640   1.319       .  A
N640        C647   1.352       .  A
N641        N642   1.321       .  A
N642        C647   1.355       .  A
N643        N644   1.320       .  A
N643       Mn657   2.203       .  S
N644        C646   1.354       .  A
Mn645      N1195   2.201   1_556  S
Mn645      N1392   2.203       .  S
Mn645      Cl658   2.549       .  S
C646        C690   1.485       .  S
C647        C707   1.481       .  S
N648        N649   1.320       .  A
N650        N651   1.320       .  A
N650       Mn657   2.202       .  S
N651        C660   1.354       .  A
N652        N653   1.319       .  A
N652       Mn656   2.199       .  S
N654        N655   1.320       .  A
N655        C659   1.353       .  A
Mn657      Cl658   2.552       .  S
C659        C735   1.479       .  S
C660        C718   1.483       .  S
C661        C662   1.408       .  A
C661        C666   1.403       .  A
C661        H668   1.083       .  S
C662        C663   1.414       .  A
C663        C664   1.403       .  A
C663        N670   1.433       .  S
C664        C665   1.399       .  A
C664        H669   1.084       .  S
C665        C666   1.413       .  A
C666        N667   1.438       .  S
N667        H671   1.046       .  S
N667        H672   1.043       .  S
N670        H673   1.041       .  S
N670       H1446   1.046       .  S
H674       N1442   1.046   1_455  S
C675        C676   1.403       .  A
C675        C680   1.402       .  A
C675        H682   1.084       .  S
C676        C677   1.408       .  A
C677        C678   1.401       .  A
C677        N684   1.433       .  S
C678        C679   1.403       .  A
C678        H683   1.082       .  S
C679        C680   1.418       .  A
C680        N681   1.432       .  S
N681        H685   1.045       .  S
N681        H686   1.046       .  S
N684        H687   1.046       .  S
N684        H688   1.046       .  S
C689        C690   1.407       .  A
C689        C694   1.402       .  A
C689        H696   1.084       .  S
C690        C691   1.415       .  A
C691        C692   1.404       .  A
C691        N698   1.438       .  S
C692        C693   1.402       .  A
C692        H697   1.084       .  S
C693        C694   1.414       .  A
C694        N695   1.438       .  S
N695       H1471   1.046       .  S
N695        H700   1.043       .  S
N698        H701   1.046       .  S
N698        H702   1.046       .  S
H699       N1467   1.046   1_455  S
C703        C704   1.402       .  A
C703        C708   1.402       .  A
C703        H710   1.084       .  S
C704        C705   1.411       .  A
C705        C706   1.405       .  A
C705        N712   1.438       .  S
C706        C707   1.405       .  A
C706        H711   1.084       .  S
C707        C708   1.421       .  A
C708        N709   1.441       .  S
N709        H713   1.046       .  S
N709        H714   1.040       .  S
N712        H715   1.044       .  S
N712        H716   1.046       .  S
C717        C722   1.400       .  A
C717        H724   1.084       .  S
C718        C719   1.414       .  A
C719        C720   1.405       .  A
C719        N726   1.438       .  S
C720        C721   1.402       .  A
C720        H725   1.084       .  S
C722        N723   1.439       .  S
N723        H727   1.045       .  S
N723        H728   1.043       .  S
N726        H729   1.046       .  S
N726        H730   1.046       .  S
C731        C732   1.403       .  A
C731        C736   1.404       .  A
C731        H738   1.084       .  S
C733        N740   1.432       .  S
C734        C735   1.404       .  A
C735        C736   1.412       .  A
C736        N737   1.437       .  S
N737        H741   1.046       .  S
N737        H742   1.046       .  S
N740        H743   1.046       .  S
N740        H744   1.045       .  S
C745        C746   1.407       .  A
C745        C750   1.411       .  A
C745        H752   1.083       .  S
C746        C747   1.411       .  A
C747        C748   1.400       .  A
C747        N754   1.432       .  S
C748        C749   1.399       .  A
C748        H753   1.084       .  S
C749        C750   1.411       .  A
N754        H757   1.045       .  S
C759        C760   1.405       .  A
C759        C764   1.406       .  A
C759        H766   1.084       .  S
C761        C762   1.403       .  A
C761        N768   1.440       .  S
C762        H767   1.084       .  S
C763        C764   1.410       .  A
C764        N765   1.438       .  S
N765        H769   1.046       .  S
N765        H770   1.044       .  S
C773       C1160   1.403       .  A
C773        C778   1.396       .  A
C773        C956   1.483       .  S
C774       C1159   1.403       .  A
C774        C775   1.418       .  A
C774        H779   1.077       .  S
C775        C776   1.418       .  A
C775        C784   1.513       .  S
C776       C1163   1.402       .  A
C776        H780   1.077       .  S
C777       C1162   1.402       .  A
C777        C778   1.398       .  A
C777        C942   1.484       .  S
C778        H781   1.084       .  S
C782        C783   1.405       .  A
C782        C787   1.397       .  A
C782       C1311   1.483       .  S
C783        C784   1.418       .  A
C783        H788   1.077       .  S
C784        C785   1.417       .  A
C785        C786   1.400       .  A
C785        H789   1.078       .  S
C786        C787   1.394       .  A
C786       C1300   1.476       .  S
C787       H1176   1.084       .  S
H790       C1173   1.084   1_565  S
C791        C792   1.397       .  A
C791        C796   1.404       .  A
C791        C897   1.482       .  S
C792        C793   1.394       .  A
C792        H797   1.085       .  S
C793        C794   1.401       .  A
C793        C886   1.477       .  S
C794        C795   1.417       .  A
C794        H798   1.078       .  S
C795        C796   1.417       .  A
C795        C802   1.512       .  S
C796        H799   1.078       .  S
C800        C801   1.404       .  A
C800        C805   1.397       .  A
C800        C869   1.482       .  S
C801        C802   1.418       .  A
C801        H806   1.078       .  S
C802        C803   1.416       .  A
C803        C804   1.399       .  A
C803        H807   1.078       .  S
C804        C805   1.395       .  A
C804        C858   1.475       .  S
C805        H808   1.084       .  S
N809        N810   1.320       .  A
N809       N1201   1.316   1_545  A
N810        C817   1.353       .  A
N811       N1199   1.316       .  A
N811        N812   1.321       .  A
N812       C1204   1.355       .  A
N813       N1197   1.316   1_545  A
N813        N814   1.321       .  A
N814        C818   1.353       .  A
N815       N1195   1.316       .  A
N815        N816   1.321       .  A
N816       C1203   1.354       .  A
C817        C953   1.482   1_545  S
C817       N1202   1.354   1_545  A
C818        C939   1.486       .  S
C818       N1198   1.355   1_545  A
N819        N825   1.315       .  A
N819        N820   1.320       .  A
N819       Mn849   2.195       .  S
N820        C828   1.353       .  A
N821        N822   1.321       .  A
N821        N823   1.315       .  A
N821      Mn1020   2.205   1_554  S
N822        C829   1.353       .  A
N823        N824   1.320       .  A
N823      Mn1042   2.200   1_554  S
N824        C829   1.354       .  A
N825        N826   1.321       .  A
N825       Mn827   2.213       .  S
N826        C828   1.357       .  A
Mn827      N1014   2.205       .  S
Mn827     Cl1237   2.550       .  S
C828        C855   1.490       .  S
C829        C872   1.483       .  S
N830        N831   1.320       .  A
N830        N836   1.315       .  A
N830       Mn838   2.201       .  S
N831        C839   1.354       .  A
N832        N834   1.315       .  A
N832        N833   1.319       .  A
N832      Mn1043   2.196   1_554  S
N833        C840   1.352       .  A
N834        N835   1.321       .  A
N834      Mn1031   2.206   1_554  S
N835        C840   1.355       .  A
N836        N837   1.320       .  A
N836       Mn850   2.203       .  S
N837        C839   1.354       .  A
Mn838      N1027   2.206       .  S
Mn838      Cl851   2.549       .  S
C839        C883   1.485       .  S
C840        C900   1.481       .  S
N841        N842   1.320       .  A
N841       N1233   1.315       .  A
N841      Mn1042   2.198   1_554  S
N842       C1238   1.353       .  A
N843        N844   1.320       .  A
N843       N1231   1.315   1_545  A
N843       Mn850   2.202       .  S
N844        C853   1.354       .  A
N845       N1229   1.315       .  A
N845        N846   1.319       .  A
N845       Mn849   2.199       .  S
N846       C1239   1.353       .  A
N847       N1227   1.315   1_545  A
N847        N848   1.320       .  A
N847      Mn1043   2.201   1_554  S
N848        C852   1.353       .  A
Mn849      N1016   2.200       .  S
Mn849      N1034   2.198       .  S
Mn849     Cl1237   2.544       .  S
Mn850      N1025   2.196       .  S
Mn850      N1040   2.201       .  S
Mn850      Cl851   2.552       .  S
Cl851     Mn1213   2.550   1_545  S
Cl851     Mn1235   2.544   1_545  S
C852        C928   1.479       .  S
C852       N1228   1.353   1_545  A
C853        C911   1.483       .  S
C853       N1232   1.353   1_545  A
C854        C855   1.408       .  A
C854        C859   1.403       .  A
C854        H861   1.083       .  S
C855        C856   1.414       .  A
C856        C857   1.403       .  A
C856        N863   1.433       .  S
C857        C858   1.399       .  A
C857        H862   1.084       .  S
C858        C859   1.413       .  A
C859        N860   1.438       .  S
N860        H864   1.046       .  S
N860        H865   1.043       .  S
N863        H866   1.041       .  S
C868        C869   1.403       .  A
C868        C873   1.402       .  A
C868        H875   1.084       .  S
C869        C870   1.408       .  A
C870        C871   1.401       .  A
C870        N877   1.433       .  S
C871        C872   1.403       .  A
C871        H876   1.082       .  S
C872        C873   1.418       .  A
C873        N874   1.432       .  S
N874        H878   1.045   1_655  S
N874        H879   1.046       .  S
N877        H880   1.046       .  S
N877        H881   1.046       .  S
C882        C883   1.407       .  A
C882        C887   1.402       .  A
C882        H889   1.084       .  S
C883        C884   1.415       .  A
C884        C885   1.404       .  A
C884        N891   1.438       .  S
C885        C886   1.402       .  A
C885        H890   1.084       .  S
C886        C887   1.414       .  A
C887        N888   1.438       .  S
N888        H893   1.043       .  S
N891        H894   1.046       .  S
N891        H895   1.046       .  S
C896        C897   1.402       .  A
C896        C901   1.402       .  A
C896        H903   1.084       .  S
C897        C898   1.411       .  A
C898        C899   1.405       .  A
C898        N905   1.438       .  S
C899        C900   1.405       .  A
C899        H904   1.084       .  S
C900        C901   1.421       .  A
C901        N902   1.441       .  S
N902        H906   1.046       .  S
N902        H907   1.040       .  S
N905        H908   1.044       .  S
N905        H909   1.046   1_655  S
C910       C1297   1.406       .  A
C910        C915   1.400       .  A
C910        H917   1.084       .  S
C911       C1296   1.406   1_545  A
C911        C912   1.414       .  A
C912        C913   1.405       .  A
C912        N919   1.438       .  S
C913        C914   1.402   1_545  A
C913        H918   1.084       .  S
C914       C1301   1.414       .  A
C914       C1172   1.476   1_565  S
C915       C1300   1.414       .  A
C915        N916   1.439       .  S
N916        H920   1.045       .  S
N916        H921   1.043       .  S
N919        H922   1.046       .  S
N919        H923   1.046       .  S
C924        C925   1.403   1_565  A
C924        C929   1.404       .  A
C924        H931   1.084       .  S
C925       C1312   1.408       .  A
C925       C1168   1.483       .  S
C926       C1311   1.408       .  A
C926       C1313   1.403       .  A
C926        N933   1.432       .  S
C927       C1312   1.403       .  A
C927        C928   1.404       .  A
C927       H1318   1.084       .  S
C928        C929   1.412   1_545  A
C929        N930   1.437       .  S
N930        H934   1.046       .  S
N930        H935   1.046       .  S
H932       C1313   1.084       .  S
N933        H936   1.046       .  S
N933        H937   1.045       .  S
C938        C939   1.407       .  A
C938        C943   1.411       .  A
C938        H945   1.083       .  S
C939        C940   1.411   1_545  A
C940        C941   1.400       .  A
C940        N947   1.432       .  S
C941        C942   1.399   1_565  A
C941        H946   1.084       .  S
C942        C943   1.411       .  A
C943       N1330   1.437       .  S
N944       C1329   1.437       .  S
N944       H1334   1.046       .  S
N944       H1335   1.045       .  S
N947        H950   1.045       .  S
N947       H1337   1.046       .  S
H948       N1330   1.046       .  S
H949       N1330   1.045       .  S
H951       N1333   1.046       .  S
C952        C953   1.405   1_545  A
C952        C957   1.406       .  A
C952        H959   1.084       .  S
C953       C1340   1.421       .  A
C954       C1339   1.421       .  A
C954        C955   1.403       .  A
C954        N961   1.440       .  S
C955       C1342   1.403       .  A
C955        H960   1.084       .  S
C956       C1341   1.403   1_545  A
C956        C957   1.410       .  A
C957        N958   1.438       .  S
N958        H962   1.046       .  S
N958        H963   1.044       .  S
N961       H1350   1.040       .  S
N961       H1351   1.046       .  S
H964       N1347   1.040       .  S
H965       N1347   1.046       .  S
C966       C1353   1.403       .  A
C966        C971   1.396       .  A
C966       C1149   1.483       .  S
C967       C1352   1.403       .  A
C967        C968   1.418       .  A
C967        H972   1.077       .  S
C968        C969   1.418       .  A
C968        C977   1.513       .  S
C969       C1356   1.402       .  A
C969        H973   1.077       .  S
C970       C1355   1.402       .  A
C970        C971   1.398       .  A
C970       C1135   1.484       .  S
C971        H974   1.084       .  S
C975        C976   1.405       .  A
C975        C980   1.397       .  A
C975       C1504   1.483       .  S
C976        C977   1.418       .  A
C976        H981   1.077       .  S
C977        C978   1.417       .  A
C978        C979   1.400       .  A
C978        H982   1.078       .  S
C979        C980   1.394       .  A
C979       C1493   1.476       .  S
C980       H1369   1.084       .  S
H983       C1366   1.084   1_565  S
C984        C985   1.397       .  A
C984        C989   1.404       .  A
C984       C1090   1.482       .  S
C985        C986   1.394       .  A
C985        H990   1.085       .  S
C986        C987   1.401       .  A
C986       C1079   1.477       .  S
C987        C988   1.417       .  A
C987        H991   1.078       .  S
C988        C989   1.417       .  A
C988        C995   1.512       .  S
C989        H992   1.078       .  S
C993        C994   1.404       .  A
C993        C998   1.397       .  A
C993       C1062   1.482       .  S
C994        C995   1.418       .  A
C994        H999   1.078       .  S
C995        C996   1.416       .  A
C996        C997   1.399       .  A
C996       H1000   1.078       .  S
C997        C998   1.395       .  A
C997       C1051   1.475       .  S
C998       H1001   1.084       .  S
N1002      N1003   1.320       .  A
N1002      N1394   1.316   1_545  A
N1003      C1010   1.353       .  A
N1004      N1392   1.316       .  A
N1004      N1005   1.321       .  A
N1005      C1397   1.355       .  A
N1006      N1390   1.316   1_545  A
N1006      N1007   1.321       .  A
N1007      C1011   1.353       .  A
N1008      N1388   1.316       .  A
N1008      N1009   1.321       .  A
N1009      C1396   1.354       .  A
C1010      C1146   1.482   1_545  S
C1010      N1395   1.354   1_545  A
C1011      C1132   1.486       .  S
C1011      N1391   1.355   1_545  A
N1012      N1018   1.315       .  A
N1012      N1013   1.320       .  A
N1012     Mn1042   2.195       .  S
N1013      C1021   1.353       .  A
N1014      N1015   1.321       .  A
N1014      N1016   1.315       .  A
N1015      C1022   1.353       .  A
N1016      N1017   1.320       .  A
N1017      C1022   1.354       .  A
N1018      N1019   1.321       .  A
N1018     Mn1020   2.213       .  S
N1019      C1021   1.357       .  A
Mn1020    Cl1430   2.550       .  S
C1021      C1048   1.490       .  S
C1022      C1065   1.483       .  S
N1023      N1024   1.320       .  A
N1023      N1029   1.315       .  A
N1023     Mn1031   2.201       .  S
N1024      C1032   1.354       .  A
N1025      N1027   1.315       .  A
N1025      N1026   1.319       .  A
N1026      C1033   1.352       .  A
N1027      N1028   1.321       .  A
N1028      C1033   1.355       .  A
N1029      N1030   1.320       .  A
N1029     Mn1043   2.203       .  S
N1030      C1032   1.354       .  A
Mn1031    Cl1044   2.549       .  S
C1032      C1076   1.485       .  S
C1033      C1093   1.481       .  S
N1034      N1035   1.320       .  A
N1034      N1426   1.315       .  A
N1035      C1431   1.353       .  A
N1036      N1037   1.320       .  A
N1036      N1424   1.315   1_545  A
N1036     Mn1043   2.202       .  S
N1037      C1046   1.354       .  A
N1038      N1422   1.315       .  A
N1038      N1039   1.319       .  A
N1038     Mn1042   2.199       .  S
N1039      C1432   1.353       .  A
N1040      N1420   1.315   1_545  A
N1040      N1041   1.320       .  A
N1041      C1045   1.353       .  A
Mn1042    Cl1430   2.544       .  S
Mn1043    Cl1044   2.552       .  S
Cl1044    Mn1406   2.550   1_545  S
Cl1044    Mn1428   2.544   1_545  S
C1045      C1121   1.479       .  S
C1045      N1421   1.353   1_545  A
C1046      C1104   1.483       .  S
C1046      N1425   1.353   1_545  A
C1047      C1048   1.408       .  A
C1047      C1052   1.403       .  A
C1047      H1054   1.083       .  S
C1048      C1049   1.414       .  A
C1049      C1050   1.403       .  A
C1049      N1056   1.433       .  S
C1050      C1051   1.399       .  A
C1050      H1055   1.084       .  S
C1051      C1052   1.413       .  A
C1052      N1053   1.438       .  S
N1053      H1057   1.046       .  S
N1053      H1058   1.043       .  S
N1056      H1059   1.041       .  S
C1061      C1062   1.403       .  A
C1061      C1066   1.402       .  A
C1061      H1068   1.084       .  S
C1062      C1063   1.408       .  A
C1063      C1064   1.401       .  A
C1063      N1070   1.433       .  S
C1064      C1065   1.403       .  A
C1064      H1069   1.082       .  S
C1065      C1066   1.418       .  A
C1066      N1067   1.432       .  S
N1067      H1071   1.045   1_655  S
N1067      H1072   1.046       .  S
N1070      H1073   1.046       .  S
N1070      H1074   1.046       .  S
C1075      C1076   1.407       .  A
C1075      C1080   1.402       .  A
C1075      H1082   1.084       .  S
C1076      C1077   1.415       .  A
C1077      C1078   1.404       .  A
C1077      N1084   1.438       .  S
C1078      C1079   1.402       .  A
C1078      H1083   1.084       .  S
C1079      C1080   1.414       .  A
C1080      N1081   1.438       .  S
N1081      H1086   1.043       .  S
N1084      H1087   1.046       .  S
N1084      H1088   1.046       .  S
C1089      C1090   1.402       .  A
C1089      C1094   1.402       .  A
C1089      H1096   1.084       .  S
C1090      C1091   1.411       .  A
C1091      C1092   1.405       .  A
C1091      N1098   1.438       .  S
C1092      C1093   1.405       .  A
C1092      H1097   1.084       .  S
C1093      C1094   1.421       .  A
C1094      N1095   1.441       .  S
N1095      H1099   1.046       .  S
N1095      H1100   1.040       .  S
N1098      H1101   1.044       .  S
N1098      H1102   1.046   1_655  S
C1103      C1490   1.406       .  A
C1103      C1108   1.400       .  A
C1103      H1110   1.084       .  S
C1104      C1489   1.406   1_545  A
C1104      C1105   1.414       .  A
C1105      C1106   1.405       .  A
C1105      N1112   1.438       .  S
C1106      C1107   1.402   1_545  A
C1106      H1111   1.084       .  S
C1107      C1494   1.414       .  A
C1107      C1365   1.476   1_565  S
C1108      C1493   1.414       .  A
C1108      N1109   1.439       .  S
N1109      H1113   1.045       .  S
N1109      H1114   1.043       .  S
N1112      H1115   1.046       .  S
N1112      H1116   1.046       .  S
C1117      C1118   1.403   1_565  A
C1117      C1122   1.404       .  A
C1117      H1124   1.084       .  S
C1118      C1505   1.408       .  A
C1118      C1361   1.483       .  S
C1119      C1504   1.408       .  A
C1119      C1506   1.403       .  A
C1119      N1126   1.432       .  S
C1120      C1505   1.403       .  A
C1120      C1121   1.404       .  A
C1120      H1511   1.084       .  S
C1121      C1122   1.412   1_545  A
C1122      N1123   1.437       .  S
N1123      H1127   1.046       .  S
N1123      H1128   1.046       .  S
H1125      C1506   1.084       .  S
N1126      H1129   1.046       .  S
N1126      H1130   1.045       .  S
C1131      C1132   1.407       .  A
C1131      C1136   1.411       .  A
C1131      H1138   1.083       .  S
C1132      C1133   1.411   1_545  A
C1133      C1134   1.400       .  A
C1133      N1140   1.432       .  S
C1134      C1135   1.399   1_565  A
C1134      H1139   1.084       .  S
C1135      C1136   1.411       .  A
C1136      N1523   1.437       .  S
N1137      C1522   1.437       .  S
N1137      H1527   1.046       .  S
N1137      H1528   1.045       .  S
N1140      H1143   1.045       .  S
N1140      H1530   1.046       .  S
H1141      N1523   1.046       .  S
H1142      N1523   1.045       .  S
H1144      N1526   1.046       .  S
C1145      C1146   1.405   1_545  A
C1145      C1150   1.406       .  A
C1145      H1152   1.084       .  S
C1146      C1533   1.421       .  A
C1147      C1532   1.421       .  A
C1147      C1148   1.403       .  A
C1147      N1154   1.440       .  S
C1148      C1535   1.403       .  A
C1148      H1153   1.084       .  S
C1149      C1534   1.403   1_545  A
C1149      C1150   1.410       .  A
C1150      N1151   1.438       .  S
N1151      H1155   1.046       .  S
N1151      H1156   1.044       .  S
N1154      H1543   1.040       .  S
N1154      H1544   1.046       .  S
H1157      N1540   1.040       .  S
H1158      N1540   1.046       .  S
C1159      C1164   1.396       .  A
C1159      C1342   1.483       .  S
C1160      C1161   1.418       .  A
C1160      H1165   1.077   1_545  S
C1161      C1162   1.418       .  A
C1161      C1170   1.513       .  S
C1162      H1166   1.077       .  S
C1163      C1164   1.398       .  A
C1163      C1328   1.484       .  S
C1164      H1167   1.084       .  S
C1168      C1169   1.405       .  A
C1168      C1173   1.397       .  A
C1169      C1170   1.418       .  A
C1169      H1174   1.077       .  S
C1170      C1171   1.417       .  A
C1171      C1172   1.400       .  A
C1171      H1175   1.078   1_545  S
C1172      C1173   1.394       .  A
C1177      C1178   1.397       .  A
C1177      C1182   1.404       .  A
C1177      C1283   1.482       .  S
C1178      C1179   1.394       .  A
C1178      H1183   1.085       .  S
C1179      C1180   1.401       .  A
C1179      C1272   1.477       .  S
C1180      C1181   1.417       .  A
C1180      H1184   1.078       .  S
C1181      C1182   1.417       .  A
C1181      C1188   1.512       .  S
C1182      H1185   1.078       .  S
C1186      C1187   1.404       .  A
C1186      C1191   1.397       .  A
C1186      C1255   1.482       .  S
C1187      C1188   1.418       .  A
C1187      H1192   1.078       .  S
C1188      C1189   1.416       .  A
C1189      C1190   1.399       .  A
C1189      H1193   1.078       .  S
C1190      C1191   1.395       .  A
C1190      C1244   1.475       .  S
C1191      H1194   1.084       .  S
N1195      N1196   1.320       .  A
N1196      C1203   1.353       .  A
N1197      N1198   1.321       .  A
N1199      N1200   1.321       .  A
N1200      C1204   1.353       .  A
N1201      N1202   1.321       .  A
C1203      C1339   1.482       .  S
C1204      C1325   1.486       .  S
N1205      N1211   1.315       .  A
N1205      N1206   1.320       .  A
N1205     Mn1235   2.195       .  S
N1206      C1214   1.353       .  A
N1207      N1208   1.321       .  A
N1207      N1209   1.315       .  A
N1207     Mn1406   2.205   1_554  S
N1208      C1215   1.353       .  A
N1209      N1210   1.320       .  A
N1209     Mn1428   2.200   1_554  S
N1210      C1215   1.354       .  A
N1211      N1212   1.321       .  A
N1211     Mn1213   2.213       .  S
N1212      C1214   1.357       .  A
Mn1213     N1400   2.205       .  S
C1214      C1241   1.490       .  S
C1215      C1258   1.483       .  S
N1216      N1217   1.320       .  A
N1216      N1222   1.315       .  A
N1216     Mn1224   2.201       .  S
N1217      C1225   1.354       .  A
N1218      N1220   1.315       .  A
N1218      N1219   1.319       .  A
N1218     Mn1429   2.196   1_554  S
N1219      C1226   1.352       .  A
N1220      N1221   1.321       .  A
N1220     Mn1417   2.206   1_554  S
N1221      C1226   1.355       .  A
N1222      N1223   1.320       .  A
N1222     Mn1236   2.203       .  S
N1223      C1225   1.354       .  A
Mn1224     N1413   2.206       .  S
Mn1224    Cl1237   2.549       .  S
C1225      C1269   1.485       .  S
C1226      C1286   1.481       .  S
N1227      N1228   1.320       .  A
N1227     Mn1428   2.198   1_554  S
N1229      N1230   1.320       .  A
N1229     Mn1236   2.202       .  S
N1230      C1239   1.354       .  A
N1231      N1232   1.319       .  A
N1231     Mn1235   2.199       .  S
N1233      N1234   1.320       .  A
N1233     Mn1429   2.201   1_554  S
N1234      C1238   1.353       .  A
Mn1235     N1402   2.200       .  S
Mn1235     N1420   2.198       .  S
Mn1236     N1411   2.196       .  S
Mn1236     N1426   2.201       .  S
Mn1236    Cl1237   2.552       .  S
C1238      C1314   1.479       .  S
C1239      C1297   1.483       .  S
C1240      C1241   1.408       .  A
C1240      C1245   1.403       .  A
C1240      H1247   1.083       .  S
C1241      C1242   1.414       .  A
C1242      C1243   1.403       .  A
C1242      N1249   1.433       .  S
C1243      C1244   1.399       .  A
C1243      H1248   1.084       .  S
C1244      C1245   1.413       .  A
C1245      N1246   1.438       .  S
N1246      H1250   1.046       .  S
N1246      H1251   1.043       .  S
N1249      H1252   1.041       .  S
C1254      C1255   1.403       .  A
C1254      C1259   1.402       .  A
C1254      H1261   1.084       .  S
C1255      C1256   1.408       .  A
C1256      C1257   1.401       .  A
C1256      N1263   1.433       .  S
C1257      C1258   1.403       .  A
C1257      H1262   1.082       .  S
C1258      C1259   1.418       .  A
C1259      N1260   1.432       .  S
N1260      H1264   1.045   1_655  S
N1260      H1265   1.046       .  S
N1263      H1266   1.046       .  S
N1263      H1267   1.046       .  S
C1268      C1269   1.407       .  A
C1268      C1273   1.402       .  A
C1268      H1275   1.084       .  S
C1269      C1270   1.415       .  A
C1270      C1271   1.404       .  A
C1270      N1277   1.438       .  S
C1271      C1272   1.402       .  A
C1271      H1276   1.084       .  S
C1272      C1273   1.414       .  A
C1273      N1274   1.438       .  S
N1274      H1279   1.043       .  S
N1277      H1280   1.046       .  S
N1277      H1281   1.046       .  S
C1282      C1283   1.402       .  A
C1282      C1287   1.402       .  A
C1282      H1289   1.084       .  S
C1283      C1284   1.411       .  A
C1284      C1285   1.405       .  A
C1284      N1291   1.438       .  S
C1285      C1286   1.405       .  A
C1285      H1290   1.084       .  S
C1286      C1287   1.421       .  A
C1287      N1288   1.441       .  S
N1288      H1292   1.046       .  S
N1288      H1293   1.040       .  S
N1291      H1294   1.044       .  S
N1291      H1295   1.046   1_655  S
C1296      C1301   1.400       .  A
C1296      H1303   1.084       .  S
C1297      C1298   1.414       .  A
C1298      C1299   1.405       .  A
C1298      N1305   1.438       .  S
C1299      C1300   1.402       .  A
C1299      H1304   1.084       .  S
C1301      N1302   1.439       .  S
N1302      H1306   1.045       .  S
N1302      H1307   1.043       .  S
N1305      H1308   1.046       .  S
N1305      H1309   1.046       .  S
C1310      C1311   1.403       .  A
C1310      C1315   1.404       .  A
C1310      H1317   1.084       .  S
C1312      N1319   1.432       .  S
C1313      C1314   1.404       .  A
C1314      C1315   1.412       .  A
C1315      N1316   1.437       .  S
N1316      H1320   1.046       .  S
N1316      H1321   1.046       .  S
N1319      H1322   1.046       .  S
N1319      H1323   1.045       .  S
C1324      C1325   1.407       .  A
C1324      C1329   1.411       .  A
C1324      H1331   1.083       .  S
C1325      C1326   1.411       .  A
C1326      C1327   1.400       .  A
C1326      N1333   1.432       .  S
C1327      C1328   1.399       .  A
C1327      H1332   1.084       .  S
C1328      C1329   1.411       .  A
N1333      H1336   1.045       .  S
C1338      C1339   1.405       .  A
C1338      C1343   1.406       .  A
C1338      H1345   1.084       .  S
C1340      C1341   1.403       .  A
C1340      N1347   1.440       .  S
C1341      H1346   1.084       .  S
C1342      C1343   1.410       .  A
C1343      N1344   1.438       .  S
N1344      H1348   1.046       .  S
N1344      H1349   1.044       .  S
C1352      C1357   1.396       .  A
C1352      C1535   1.483       .  S
C1353      C1354   1.418       .  A
C1353      H1358   1.077   1_545  S
C1354      C1355   1.418       .  A
C1354      C1363   1.513       .  S
C1355      H1359   1.077       .  S
C1356      C1357   1.398       .  A
C1356      C1521   1.484       .  S
C1357      H1360   1.084       .  S
C1361      C1362   1.405       .  A
C1361      C1366   1.397       .  A
C1362      C1363   1.418       .  A
C1362      H1367   1.077       .  S
C1363      C1364   1.417       .  A
C1364      C1365   1.400       .  A
C1364      H1368   1.078   1_545  S
C1365      C1366   1.394       .  A
C1370      C1371   1.397       .  A
C1370      C1375   1.404       .  A
C1370      C1476   1.482       .  S
C1371      C1372   1.394       .  A
C1371      H1376   1.085       .  S
C1372      C1373   1.401       .  A
C1372      C1465   1.477       .  S
C1373      C1374   1.417       .  A
C1373      H1377   1.078       .  S
C1374      C1375   1.417       .  A
C1374      C1381   1.512       .  S
C1375      H1378   1.078       .  S
C1379      C1380   1.404       .  A
C1379      C1384   1.397       .  A
C1379      C1448   1.482       .  S
C1380      C1381   1.418       .  A
C1380      H1385   1.078       .  S
C1381      C1382   1.416       .  A
C1382      C1383   1.399       .  A
C1382      H1386   1.078       .  S
C1383      C1384   1.395       .  A
C1383      C1437   1.475       .  S
C1384      H1387   1.084       .  S
N1388      N1389   1.320       .  A
N1389      C1396   1.353       .  A
N1390      N1391   1.321       .  A
N1392      N1393   1.321       .  A
N1393      C1397   1.353       .  A
N1394      N1395   1.321       .  A
C1396      C1532   1.482       .  S
C1397      C1518   1.486       .  S
N1398      N1404   1.315       .  A
N1398      N1399   1.320       .  A
N1398     Mn1428   2.195       .  S
N1399      C1407   1.353       .  A
N1400      N1401   1.321       .  A
N1400      N1402   1.315       .  A
N1401      C1408   1.353       .  A
N1402      N1403   1.320       .  A
N1403      C1408   1.354       .  A
N1404      N1405   1.321       .  A
N1404     Mn1406   2.213       .  S
N1405      C1407   1.357       .  A
C1407      C1434   1.490       .  S
C1408      C1451   1.483       .  S
N1409      N1410   1.320       .  A
N1409      N1415   1.315       .  A
N1409     Mn1417   2.201       .  S
N1410      C1418   1.354       .  A
N1411      N1413   1.315       .  A
N1411      N1412   1.319       .  A
N1412      C1419   1.352       .  A
N1413      N1414   1.321       .  A
N1414      C1419   1.355       .  A
N1415      N1416   1.320       .  A
N1415     Mn1429   2.203       .  S
N1416      C1418   1.354       .  A
Mn1417    Cl1430   2.549       .  S
C1418      C1462   1.485       .  S
C1419      C1479   1.481       .  S
N1420      N1421   1.320       .  A
N1422      N1423   1.320       .  A
N1422     Mn1429   2.202       .  S
N1423      C1432   1.354       .  A
N1424      N1425   1.319       .  A
N1424     Mn1428   2.199       .  S
N1426      N1427   1.320       .  A
N1427      C1431   1.353       .  A
Mn1429    Cl1430   2.552       .  S
C1431      C1507   1.479       .  S
C1432      C1490   1.483       .  S
C1433      C1434   1.408       .  A
C1433      C1438   1.403       .  A
C1433      H1440   1.083       .  S
C1434      C1435   1.414       .  A
C1435      C1436   1.403       .  A
C1435      N1442   1.433       .  S
C1436      C1437   1.399       .  A
C1436      H1441   1.084       .  S
C1437      C1438   1.413       .  A
C1438      N1439   1.438       .  S
N1439      H1443   1.046       .  S
N1439      H1444   1.043       .  S
N1442      H1445   1.041       .  S
C1447      C1448   1.403       .  A
C1447      C1452   1.402       .  A
C1447      H1454   1.084       .  S
C1448      C1449   1.408       .  A
C1449      C1450   1.401       .  A
C1449      N1456   1.433       .  S
C1450      C1451   1.403       .  A
C1450      H1455   1.082       .  S
C1451      C1452   1.418       .  A
C1452      N1453   1.432       .  S
N1453      H1457   1.045   1_655  S
N1453      H1458   1.046       .  S
N1456      H1459   1.046       .  S
N1456      H1460   1.046       .  S
C1461      C1462   1.407       .  A
C1461      C1466   1.402       .  A
C1461      H1468   1.084       .  S
C1462      C1463   1.415       .  A
C1463      C1464   1.404       .  A
C1463      N1470   1.438       .  S
C1464      C1465   1.402       .  A
C1464      H1469   1.084       .  S
C1465      C1466   1.414       .  A
C1466      N1467   1.438       .  S
N1467      H1472   1.043       .  S
N1470      H1473   1.046       .  S
N1470      H1474   1.046       .  S
C1475      C1476   1.402       .  A
C1475      C1480   1.402       .  A
C1475      H1482   1.084       .  S
C1476      C1477   1.411       .  A
C1477      C1478   1.405       .  A
C1477      N1484   1.438       .  S
C1478      C1479   1.405       .  A
C1478      H1483   1.084       .  S
C1479      C1480   1.421       .  A
C1480      N1481   1.441       .  S
N1481      H1485   1.046       .  S
N1481      H1486   1.040       .  S
N1484      H1487   1.044       .  S
N1484      H1488   1.046   1_655  S
C1489      C1494   1.400       .  A
C1489      H1496   1.084       .  S
C1490      C1491   1.414       .  A
C1491      C1492   1.405       .  A
C1491      N1498   1.438       .  S
C1492      C1493   1.402       .  A
C1492      H1497   1.084       .  S
C1494      N1495   1.439       .  S
N1495      H1499   1.045       .  S
N1495      H1500   1.043       .  S
N1498      H1501   1.046       .  S
N1498      H1502   1.046       .  S
C1503      C1504   1.403       .  A
C1503      C1508   1.404       .  A
C1503      H1510   1.084       .  S
C1505      N1512   1.432       .  S
C1506      C1507   1.404       .  A
C1507      C1508   1.412       .  A
C1508      N1509   1.437       .  S
N1509      H1513   1.046       .  S
N1509      H1514   1.046       .  S
N1512      H1515   1.046       .  S
N1512      H1516   1.045       .  S
C1517      C1518   1.407       .  A
C1517      C1522   1.411       .  A
C1517      H1524   1.083       .  S
C1518      C1519   1.411       .  A
C1519      C1520   1.400       .  A
C1519      N1526   1.432       .  S
C1520      C1521   1.399       .  A
C1520      H1525   1.084       .  S
C1521      C1522   1.411       .  A
N1526      H1529   1.045       .  S
C1531      C1532   1.405       .  A
C1531      C1536   1.406       .  A
C1531      H1538   1.084       .  S
C1533      C1534   1.403       .  A
C1533      N1540   1.440       .  S
C1534      H1539   1.084       .  S
C1535      C1536   1.410       .  A
C1536      N1537   1.438       .  S
N1537      H1541   1.046       .  S
N1537      H1542   1.044       .  S
