geometry optimzed in LAMMPS
_audit_creation_date              2020-11-30 
_audit_creation_method            'lammps2cif' 
_symmetry_space_group_name_H-M    'P1' 
_symmetry_Int_Tables_number       1 
_symmetry_cell_setting            triclinic 
loop_ 
_symmetry_equiv_pos_as_xyz 
  x,y,z 
_cell_length_a                    26.66421741 
_cell_length_b                    27.37905415409379 
_cell_length_c                    51.363984405740986 
_cell_angle_alpha                 89.92042396539566 
_cell_angle_beta                  89.83554003323768 
_cell_angle_gamma                 89.2957773476323 
loop_ 
_atom_site_label 
_atom_site_type_symbol 
_atom_site_fract_x 
_atom_site_fract_y 
_atom_site_fract_z 
_atom_site_charge 
C1          C  0.50552647  0.44874293  0.76853456     0.88500
C2          C  0.45974524  0.45525502  0.75075652    -0.51700
C3          C  0.45919415  0.99594009  0.73720434     0.11400
C4          C  0.50468777  0.02855231  0.74268229     0.22400
C5          C  0.04792422  0.45809034  0.75272852    -0.52500
C6          C  0.05010013  0.99740666  0.73795243     0.11500
C7          C  0.50547512  0.49403689  0.78590914    -0.52000
C8          C  0.00162318  0.03835731  0.77184546     0.12100
H9          H  0.43013633  0.42853455  0.74912164     0.16600
H10         H  0.50486282  0.06316186  0.73135222     0.02300
H11         H  0.07775754  0.43072934  0.75191903     0.16900
H12         H  0.50515833  0.49251597  0.80705633     0.16700
N13         N  0.33040088  0.03653993  0.63783123    -0.34600
N14         N  0.25460384  0.02330975  0.67832090    -0.55200
N15         N  0.17896784  0.00806193  0.63788776    -0.34600
N16         N  0.25435222  0.02166940  0.59751668    -0.55200
C17         C  0.36088607  0.03248755  0.65885647     0.29000
C18         C  0.35998766  0.03912365  0.61638861     0.29000
C19         C  0.14867704  0.01481760  0.65885263     0.29000
C20         C  0.14925561  0.00728901  0.61652303     0.29000
C21         C  0.29544597  0.02303689  0.69386719     0.37600
C22         C  0.21409837  0.01817494  0.69391449     0.37600
C23         C  0.29420117  0.02941317  0.58175740     0.37600
C24         C  0.21524242  0.01090987  0.58188782     0.37600
C25         C  0.41048409  0.03442920  0.65062919    -0.19900
C26         C  0.40989632  0.03891345  0.62398220    -0.19900
C27         C  0.09912663  0.01761074  0.65063145    -0.19900
C28         C  0.09950269  0.01255621  0.62403416    -0.19900
C29         C  0.28067710  0.01820558  0.71965976    -0.20900
C30         C  0.22919958  0.01548919  0.71970320    -0.20900
C31         C  0.27993840  0.02430264  0.55594978    -0.20900
C32         C  0.23039120  0.01176634  0.55606263    -0.20900
C33         C  0.34590147  0.02579857  0.68520425    -0.16300
C34         C  0.34395266  0.03868078  0.59003056    -0.16300
C35         C  0.16535227  0.00289567  0.59030826    -0.16300
C36         C  0.16371131  0.01631238  0.68531842    -0.16300
H37         H  0.44388066  0.03204238  0.66252136     0.16600
H38         H  0.44273403  0.04002556  0.61156512     0.16600
H39         H  0.06592501  0.02265754  0.66255397     0.16600
H40         H  0.06679464  0.01363282  0.61159924     0.16600
H41         H  0.30447960  0.01669983  0.73668536     0.14900
H42         H  0.20566742  0.01141981  0.73675714     0.14900
H43         H  0.30287598  0.02837313  0.53869521     0.14900
H44         H  0.20806056  0.00486365  0.53893765     0.14900
H45         H  0.29171365  0.03889189  0.63800415     0.28200
H46         H  0.21699202  0.99981231  0.63827458     0.28200
N47         N  0.17694006  0.03226080  0.36104408    -0.34600
N48         N  0.25421944  0.03672300  0.40105529    -0.55200
N49         N  0.33075238  0.02537582  0.36125003    -0.34600
N50         N  0.25340703  0.02365328  0.32087612    -0.55200
C51         C  0.14866169  0.04672804  0.38162645     0.29000
C52         C  0.14798738  0.03581920  0.33951020     0.29000
C53         C  0.35949377  0.03669692  0.38204472     0.29000
C54         C  0.35907325  0.03176783  0.33962666     0.29000
C55         C  0.21325488  0.03689698  0.41662456     0.37600
C56         C  0.29446341  0.03066703  0.41676667     0.37600
C57         C  0.21271639  0.01345767  0.30623574     0.37600
C58         C  0.29426222  0.01335295  0.30609488     0.37600
C59         C  0.10091861  0.05943201  0.37303731    -0.19900
C60         C  0.10046245  0.05245644  0.34650597    -0.19900
C61         C  0.40687750  0.04982268  0.37354315    -0.19900
C62         C  0.40659308  0.04682681  0.34681282    -0.19900
C63         C  0.22776095  0.03192054  0.44243051    -0.20900
C64         C  0.27903357  0.02777671  0.44249918    -0.20900
C65         C  0.22783323  0.99719879  0.28185297    -0.20900
C66         C  0.27945638  0.99726975  0.28173975    -0.20900
C67         C  0.16320371  0.04450829  0.40813003    -0.16300
C68         C  0.16225473  0.02133177  0.31406467    -0.16300
C69         C  0.34454225  0.02091116  0.31380024    -0.16300
C70         C  0.34503619  0.03285525  0.40851200    -0.16300
H71         H  0.06923387  0.07138423  0.38471534     0.16600
H72         H  0.06850836  0.05830692  0.33387401     0.16600
H73         H  0.43860572  0.06007288  0.38534754     0.16600
H74         H  0.43810855  0.05424288  0.33413819     0.16600
H75         H  0.20418948  0.03229329  0.45960171     0.14900
H76         H  0.30221517  0.02457031  0.45968232     0.14900
H77         H  0.20416256  0.98693366  0.26572374     0.14900
H78         H  0.30334022  0.98694250  0.26553341     0.14900
H79         H  0.21175696  0.01503183  0.36202106     0.28200
H80         H  0.29601285  0.00866522  0.36193908     0.28200
O81         O  0.02787173  0.03981612  0.97120224    -0.72400
O82         O  0.02678529  0.44858841  0.02704514    -0.72500
O83         O  0.02175103  0.43991908  0.97450496    -0.72500
O84         O  0.02703362  0.05301838  0.02367774    -0.72600
O85         O  0.45496460  0.05460485  0.02354146    -0.72500
O86         O  0.44943172  0.44030184  0.97750605    -0.72500
O87         O  0.45473409  0.45055022  0.02979320    -0.72400
O88         O  0.45192336  0.04251623  0.97128723    -0.72500
Ni89       Ni  0.02815716  0.49336278  0.99880528     1.25400
Ni90       Ni  0.44847169  0.49478506  0.00050881     1.25400
C91         C  0.49373619  0.05435131  0.96063888     0.89800
C92         C  0.49795099  0.43666590  0.03826755     0.89700
C93         C  0.49030434  0.42208140  0.96861885     0.89700
C94         C  0.49709069  0.07206432  0.03043344     0.89900
N95         N  0.49516182  0.32258580  0.13500394    -0.34600
N96         N  0.51082439  0.24876145  0.17457747    -0.55200
N97         N  0.52473781  0.17480616  0.13375657    -0.34600
N98         N  0.50207389  0.24765671  0.09431381    -0.55200
C99         C  0.48750255  0.34982682  0.15666712     0.29000
C100        C  0.47698868  0.34835660  0.11452408     0.29000
C101        C  0.51761106  0.14585710  0.15485161     0.29000
C102        C  0.52138843  0.14611994  0.11234938     0.29000
C103        C  0.51374891  0.28845704  0.19008114     0.37600
C104        C  0.52112874  0.20956132  0.18969903     0.37600
C105        C  0.49594855  0.28773932  0.07918336     0.37600
C106        C  0.51730834  0.21102547  0.07836088     0.37600
C107        C  0.46495547  0.39392086  0.14980258    -0.19900
C108        C  0.45807199  0.39287026  0.12326390    -0.19900
C109        C  0.51075730  0.09808853  0.14664565    -0.19900
C110        C  0.51349933  0.09822328  0.11992746    -0.19900
C111        C  0.52586149  0.27435969  0.21526125    -0.20900
C112        C  0.53009788  0.22429331  0.21506149    -0.20900
C113        C  0.50669835  0.27632007  0.05344934    -0.20900
C114        C  0.52069717  0.22792842  0.05297126    -0.20900
C115        C  0.50170588  0.33668780  0.18231706    -0.16300
C116        C  0.47988593  0.33438122  0.08799210    -0.16300
C117        C  0.52466021  0.16177372  0.08609826    -0.16300
C118        C  0.51908907  0.16057482  0.18133141    -0.16300
H119        H  0.45441856  0.42375675  0.16258263     0.16600
H120        H  0.44160792  0.42194070  0.11168291     0.16600
H121        H  0.50441515  0.06623302  0.15862670     0.16600
H122        H  0.50901818  0.06670960  0.10748420     0.16600
H123        H  0.52986337  0.29756952  0.23215415     0.14900
H124        H  0.53845559  0.20132948  0.23170290     0.14900
H125        H  0.50503748  0.30042243  0.03674233     0.14900
H126        H  0.53154186  0.20749518  0.03579487     0.14900
H127        H  0.51637807  0.29072668  0.13393843     0.28200
H128        H  0.53562759  0.21104167  0.13394068     0.28200
C129        C  0.50387696  0.45402581  0.23223009     0.88500
C130        C  0.04669018  0.45483224  0.24985879    -0.51700
C131        C  0.04845562  0.99680511  0.26200585     0.11400
C132        C  0.50544610  0.03181675  0.25701638     0.22400
C133        C  0.45714942  0.46165601  0.24919152    -0.52500
C134        C  0.45872850  0.99985408  0.26115317     0.11500
C135        C  0.50651947  0.49939570  0.21495284    -0.52000
C136        C  0.50771771  0.04033517  0.22738945     0.12100
H137        H  0.07516605  0.42620034  0.25113041     0.16600
H138        H  0.50550826  0.06589258  0.26874851     0.02300
H139        H  0.42696176  0.43545068  0.25051437     0.16900
H140        H  0.50861820  0.49787537  0.19383016     0.16700
N141        N  0.97908374  0.17149556  0.86441452    -0.34600
N142        N  0.99145736  0.24670920  0.82498619    -0.55200
N143        N  0.00055976  0.31897540  0.86599254    -0.34600
N144        N  0.98209830  0.24464605  0.90527515    -0.55200
C145        C  0.97229236  0.14520240  0.84246906     0.29000
C146        C  0.96100830  0.14499238  0.88458947     0.29000
C147        C  0.99277991  0.34854385  0.84519427     0.29000
C148        C  0.99571576  0.34680574  0.88759433     0.29000
C149        C  0.99793672  0.20725389  0.80957189     0.37600
C150        C  0.00157598  0.28612127  0.81015309     0.37600
C151        C  0.97865179  0.20415823  0.92024183     0.37600
C152        C  0.99689234  0.28109295  0.92112360     0.37600
C153        C  0.95018850  0.10109229  0.84877690    -0.19900
C154        C  0.94278978  0.10110870  0.87531924    -0.19900
C155        C  0.98316518  0.39581627  0.85377741    -0.19900
C156        C  0.98538048  0.39476176  0.88051844    -0.19900
C157        C  0.01166364  0.22168088  0.78467541    -0.20900
C158        C  0.01356078  0.27178796  0.78499343    -0.20900
C159        C  0.50152678  0.21724374  0.94658578    -0.20900
C160        C  0.51455624  0.26558174  0.94659459    -0.20900
C161        C  0.98783820  0.15885093  0.81714021    -0.16300
C162        C  0.96402178  0.15762447  0.91128098    -0.16300
C163        C  0.00202299  0.33042087  0.91348631    -0.16300
C164        C  0.99763954  0.33485854  0.81873627    -0.16300
H165        H  0.94050959  0.07183304  0.83563142     0.16600
H166        H  0.92672984  0.07169422  0.88656635     0.16600
H167        H  0.97604059  0.42795753  0.84200530     0.16600
H168        H  0.97980694  0.42577737  0.89329509     0.16600
H169        H  0.01847595  0.19861625  0.76790308     0.14900
H170        H  0.02265208  0.29499005  0.76860652     0.14900
H171        H  0.50198801  0.19317374  0.96332385     0.14900
H172        H  0.52645204  0.28618275  0.96340096     0.14900
H173        H  0.00031124  0.20283890  0.86574528     0.28200
H174        H  0.01417071  0.28332153  0.86557457     0.28200
O175        O  0.44996648  0.04405489  0.47201054    -0.72400
O176        O  0.05263786  0.05848579  0.52335606    -0.72500
O177        O  0.05189798  0.05266119  0.47060642    -0.72500
O178        O  0.44995434  0.04865560  0.52510725    -0.72600
O179        O  0.45574262  0.47569972  0.52833380    -0.72500
O180        O  0.05625501  0.47582409  0.47510250    -0.72500
O181        O  0.05804274  0.48167568  0.52789728    -0.72400
O182        O  0.45588741  0.46972949  0.47577309    -0.72500
Ni183      Ni  0.50024716  0.05224070  0.49809651     1.25400
Ni184      Ni  0.50645721  0.47467552  0.50220528     1.25400
C185        C  0.43687331  0.00177624  0.46409589     0.89800
C186        C  0.07235611  0.02039384  0.53368869     0.89700
C187        C  0.07209939  0.01211247  0.46331021     0.89700
C188        C  0.43638469  0.00758440  0.53477522     0.89900
C189        C  0.50223457  0.37489205  0.20188871    -0.11300
C190        C  0.50326322  0.40888809  0.21681370    -0.12800
C191        C  0.51624112  0.12261588  0.20103794    -0.11300
C192        C  0.51226797  0.08737221  0.21499985    -0.12800
C193        C  0.49564825  0.08630131  0.93761692    -0.14400
C194        C  0.46228798  0.12223701  0.93315831    -0.29600
H195        H  0.02752992  0.09326736  0.93019583     0.14600
H196        H  0.43137481  0.12855893  0.94660962     0.15200
C197        C  0.48661392  0.38068559  0.95054254    -0.14400
C198        C  0.52250610  0.36946174  0.93319975    -0.29600
H199        H  0.45155554  0.36082482  0.95013341     0.13400
H200        H  0.04739004  0.38549619  0.93427294     0.15200
C201        C  0.50326911  0.40327617  0.06058683    -0.14400
C202        C  0.46789501  0.37184736  0.06793656    -0.29600
H203        H  0.02810147  0.39174577  0.06624368     0.14600
H204        H  0.43236438  0.37028419  0.05770738     0.15200
C205        C  0.49594627  0.11443118  0.04820589    -0.14400
C206        C  0.53195604  0.12340148  0.06571379    -0.29600
H207        H  0.46175172  0.13646126  0.04869067     0.14600
H208        H  0.05457184  0.10326945  0.06538211     0.15200
C209        C  0.38468353  0.03639547  0.42874145    -0.14400
C210        C  0.39873822  0.99775002  0.44335909    -0.29600
H211        H  0.40284605  0.07137520  0.43123082     0.14600
H212        H  0.38193035  0.96241009  0.43987031     0.15200
C213        C  0.12321159  0.04932221  0.42823186    -0.14400
C214        C  0.11057103  0.01055251  0.44270543    -0.29600
H215        H  0.10341350  0.08399152  0.43040700     0.14600
H216        H  0.12508655  0.47900439  0.44010365     0.15200
C217        C  0.41830648  0.01122712  0.27906045    -0.11300
C218        C  0.38406213  0.01679407  0.29429955    -0.12800
C219        C  0.08870501  0.00707791  0.27995930    -0.11300
C220        C  0.12256964  0.01427492  0.29505640    -0.12800
C221        C  0.12649781  0.99273185  0.57026625    -0.14400
C222        C  0.11120702  0.02770372  0.55367645    -0.29600
H223        H  0.10550331  0.46096741  0.57168463     0.14600
H224        H  0.12720360  0.06391035  0.55527975     0.15200
C225        C  0.39794122  0.00520750  0.55538030    -0.14400
C226        C  0.38313464  0.04395754  0.56953446    -0.29600
H227        H  0.38159673  0.96980814  0.55946701     0.14600
H228        H  0.40095754  0.07910511  0.56698653     0.15200
C229        C  0.99258895  0.12068358  0.79782913    -0.11300
C230        C  0.99717689  0.08536642  0.78406621    -0.12800
C231        C  0.99914762  0.40749651  0.78455586    -0.11300
C232        C  0.99849954  0.37333322  0.79936457    -0.12800
C233        C  0.09018939  0.00889840  0.72010994    -0.11300
C234        C  0.12425518  0.01419342  0.70486067    -0.12800
C235        C  0.41919134  0.00928905  0.71945381    -0.11300
C236        C  0.38549138  0.01832975  0.70438874    -0.12800
C237        C  0.50428356  0.94765001  0.76939301     0.88500
C238        C  0.45901990  0.95337442  0.75115861    -0.51700
C239        C  0.45969003  0.49820082  0.73716397     0.11400
C240        C  0.50545184  0.53051472  0.74261388     0.22400
C241        C  0.05092541  0.95564761  0.75244594    -0.52500
C242        C  0.04910112  0.50061405  0.73889195     0.11500
C243        C  0.50336791  0.99353051  0.78629995    -0.52000
C244        C  0.99849593  0.54062072  0.77242852     0.12100
H245        H  0.42937123  0.92666768  0.74966787     0.16600
H246        H  0.50550315  0.56544855  0.73156863     0.02300
H247        H  0.08147516  0.92905225  0.75157679     0.16900
H248        H  0.50217350  0.99276166  0.80745369     0.16700
N249        N  0.32937169  0.53295840  0.63834257    -0.34600
N250        N  0.25411194  0.52415419  0.67894377    -0.55200
N251        N  0.17738745  0.51021909  0.63889978    -0.34600
N252        N  0.25193507  0.52519528  0.59842452    -0.55200
C253        C  0.35869634  0.53842103  0.65957376     0.29000
C254        C  0.35616977  0.54710189  0.61727099     0.29000
C255        C  0.14770982  0.51802722  0.65995888     0.29000
C256        C  0.14751642  0.51106087  0.61763461     0.29000
C257        C  0.29543744  0.51930417  0.69402978     0.37600
C258        C  0.21398484  0.51626993  0.69449974     0.37600
C259        C  0.29244025  0.52940622  0.58273302     0.37600
C260        C  0.21352772  0.51120095  0.58312038     0.37600
C261        C  0.40510863  0.55578040  0.65190801    -0.19900
C262        C  0.40339816  0.56160915  0.62528269    -0.19900
C263        C  0.09822156  0.52315195  0.65190054    -0.19900
C264        C  0.09809896  0.51843003  0.62525579    -0.19900
C265        C  0.28136143  0.50924122  0.71947518    -0.20900
C266        C  0.22981041  0.50777417  0.71981684    -0.20900
C267        C  0.27915048  0.51938439  0.55719106    -0.20900
C268        C  0.22951639  0.50713343  0.55751680    -0.20900
C269        C  0.34549726  0.52602286  0.68546965    -0.16300
C270        C  0.34111023  0.54295111  0.59089020    -0.16300
C271        C  0.16341026  0.50520841  0.59151783    -0.16300
C272        C  0.16327113  0.51738962  0.68632889    -0.16300
H273        H  0.43701181  0.56327096  0.66419817     0.16600
H274        H  0.43405262  0.57384034  0.61315510     0.16600
H275        H  0.06539169  0.52919027  0.66397326     0.16600
H276        H  0.06535352  0.52078972  0.61288563     0.16600
H277        H  0.30564129  0.50405794  0.73612902     0.14900
H278        H  0.20666937  0.50066193  0.73671741     0.14900
H279        H  0.30255907  0.52053707  0.53997606     0.14900
H280        H  0.20759478  0.49722769  0.54067446     0.14900
H281        H  0.29551175  0.51507562  0.63803441     0.28200
H282        H  0.21478887  0.49967501  0.63915744     0.28200
N283        N  0.17540903  0.53337195  0.36306350    -0.34600
N284        N  0.25183589  0.53999986  0.40314488    -0.55200
N285        N  0.32951564  0.52800612  0.36354862    -0.34600
N286        N  0.25286486  0.52524861  0.32310490    -0.55200
C287        C  0.14653654  0.54805710  0.38338262     0.29000
C288        C  0.14670828  0.53554933  0.34142719     0.29000
C289        C  0.35812745  0.53798643  0.38454529     0.29000
C290        C  0.35873052  0.53310279  0.34213908     0.29000
C291        C  0.21076760  0.54061820  0.41861823     0.37600
C292        C  0.29185467  0.53444572  0.41899428     0.37600
C293        C  0.21249553  0.51440302  0.30838080     0.37600
C294        C  0.29396978  0.51637098  0.30825209     0.37600
C295        C  0.09861545  0.55925673  0.37454830    -0.19900
C296        C  0.09867173  0.55122740  0.34811403    -0.19900
C297        C  0.40652604  0.54837482  0.37644083    -0.19900
C298        C  0.40688470  0.54543514  0.34972065    -0.19900
C299        C  0.22492348  0.53634386  0.44450371    -0.20900
C300        C  0.27617706  0.53223778  0.44472658    -0.20900
C301        C  0.22806038  0.49909829  0.28389838    -0.20900
C302        C  0.27960588  0.50059616  0.28377317    -0.20900
C303        C  0.16086704  0.54758504  0.40990125    -0.16300
C304        C  0.16182807  0.52111791  0.31611949    -0.16300
C305        C  0.34413521  0.52406066  0.31611143    -0.16300
C306        C  0.34248792  0.53597498  0.41087408    -0.16300
H307        H  0.06655454  0.57100752  0.38600844     0.16600
H308        H  0.06677231  0.55597706  0.33532773     0.16600
H309        H  0.43842577  0.55703253  0.38850142     0.16600
H310        H  0.43916524  0.55127482  0.33732313     0.16600
H311        H  0.20108609  0.53692168  0.46158174     0.14900
H312        H  0.29921168  0.52924354  0.46197859     0.14900
H313        H  0.20470625  0.48860904  0.26768836     0.14900
H314        H  0.30373809  0.49111840  0.26752112     0.14900
H315        H  0.21056193  0.51703327  0.36425213     0.28200
H316        H  0.29380664  0.51353129  0.36403997     0.28200
O317        O  0.02492582  0.53818474  0.97054812    -0.72400
O318        O  0.02696300  0.95518603  0.03003165    -0.72500
O319        O  0.02526660  0.94174457  0.97754572    -0.72500
O320        O  0.02731718  0.54706789  0.02332805    -0.72600
O321        O  0.45232694  0.54928071  0.02337432    -0.72500
O322        O  0.44982360  0.94408806  0.97865751    -0.72500
O323        O  0.45532044  0.95576207  0.03070690    -0.72400
O324        O  0.44950256  0.53894362  0.97105489    -0.72500
Ni325      Ni  0.02973710  0.99735695  0.00058670     1.25400
Ni326      Ni  0.45001684  0.99937024  0.00113547     1.25400
C327        C  0.49108600  0.55209684  0.96061494     0.89800
C328        C  0.49820069  0.94140442  0.03939191     0.89700
C329        C  0.49029109  0.92438432  0.97015294     0.89700
C330        C  0.49418872  0.56705943  0.03040942     0.89900
N331        N  0.49961246  0.82036484  0.13199066    -0.34600
N332        N  0.51156212  0.74703850  0.17244288    -0.55200
N333        N  0.52293013  0.67172781  0.13256906    -0.34600
N334        N  0.50369142  0.74428086  0.09222763    -0.55200
C335        C  0.49071054  0.84772596  0.15348282     0.29000
C336        C  0.48168731  0.84573682  0.11129521     0.29000
C337        C  0.51595233  0.64347229  0.15392531     0.29000
C338        C  0.51926782  0.64247471  0.11145200     0.29000
C339        C  0.51580016  0.78720499  0.18746540     0.37600
C340        C  0.52138365  0.70829843  0.18797656     0.37600
C341        C  0.49961718  0.78392544  0.07659375     0.37600
C342        C  0.51776466  0.70648207  0.07680396     0.37600
C343        C  0.46763206  0.89136282  0.14633512    -0.19900
C344        C  0.46156060  0.88993324  0.11978263    -0.19900
C345        C  0.50871140  0.59548697  0.14619415    -0.19900
C346        C  0.51113892  0.59482405  0.11945720    -0.19900
C347        C  0.52817947  0.77390903  0.21273120    -0.20900
C348        C  0.53133738  0.72382329  0.21309486    -0.20900
C349        C  0.51055850  0.77110941  0.05107523    -0.20900
C350        C  0.52238549  0.72218325  0.05123604    -0.20900
C351        C  0.50436306  0.83521723  0.17925128    -0.16300
C352        C  0.48523439  0.83139767  0.08482233    -0.16300
C353        C  0.52323995  0.65737137  0.08512967    -0.16300
C354        C  0.51828064  0.65909351  0.18020436    -0.16300
H355        H  0.45602553  0.92106621  0.15896063     0.16600
H356        H  0.44448386  0.91846617  0.10807125     0.16600
H357        H  0.50255986  0.56402146  0.15850559     0.16600
H358        H  0.50663163  0.56292556  0.10729569     0.16600
H359        H  0.53310397  0.79770332  0.22931722     0.14900
H360        H  0.53966153  0.70138128  0.22994115     0.14900
H361        H  0.51045531  0.79461033  0.03410988     0.14900
H362        H  0.53274036  0.70062151  0.03436964     0.14900
H363        H  0.52151646  0.78885094  0.13125595     0.28200
H364        H  0.53419452  0.70782751  0.13236522     0.28200
C365        C  0.50541604  0.95203603  0.22947831     0.88500
C366        C  0.04712415  0.95476300  0.24773626    -0.51700
C367        C  0.04840322  0.49693722  0.26402200     0.11400
C368        C  0.50427985  0.53562780  0.25826653     0.22400
C369        C  0.45883516  0.95811159  0.24671135    -0.52500
C370        C  0.45728773  0.50428259  0.26288937     0.11500
C371        C  0.50743735  0.99857226  0.21303165    -0.52000
C372        C  0.50696381  0.54205198  0.22849449     0.12100
H373        H  0.07574512  0.92628756  0.24905067     0.16600
H374        H  0.50447280  0.57048126  0.26933242     0.02300
H375        H  0.42875907  0.93171550  0.24751749     0.16900
H376        H  0.50936659  0.99844246  0.19189397     0.16700
N377        N  0.97925084  0.67260920  0.86677611    -0.34600
N378        N  0.99905024  0.74699661  0.82782418    -0.55200
N379        N  0.01061935  0.81908299  0.86908523    -0.34600
N380        N  0.98351830  0.74599516  0.90790641    -0.55200
C381        C  0.97283001  0.64637797  0.84474742     0.29000
C382        C  0.95956719  0.64671168  0.88674419     0.29000
C383        C  0.00677667  0.84908712  0.84814371     0.29000
C384        C  0.00727773  0.84728750  0.89063893     0.29000
C385        C  0.00304949  0.70741647  0.81226742     0.37600
C386        C  0.01149500  0.78594331  0.81312270     0.37600
C387        C  0.97563997  0.70598713  0.92279558     0.37600
C388        C  0.99798777  0.78190406  0.92423115     0.37600
C389        C  0.94932666  0.60285901  0.85084134    -0.19900
C390        C  0.94078899  0.60317683  0.87728984    -0.19900
C391        C  0.00200988  0.89705941  0.85660528    -0.19900
C392        C  0.00273949  0.89594624  0.88336398    -0.19900
C393        C  0.01801918  0.72131648  0.78748200    -0.20900
C394        C  0.02291043  0.77117726  0.78796777    -0.20900
C395        C  0.49204976  0.71662834  0.94841673    -0.20900
C396        C  0.50530886  0.76490436  0.94891580    -0.20900
C397        C  0.98949906  0.65961143  0.81951013    -0.16300
C398        C  0.96102877  0.65962485  0.91346287    -0.16300
C399        C  0.00828376  0.83060625  0.91673304    -0.16300
C400        C  0.00963247  0.83486356  0.82163782    -0.16300
H401        H  0.93941835  0.57379246  0.83762149     0.16600
H402        H  0.92333414  0.57427760  0.88834871     0.16600
H403        H  0.99866313  0.92964199  0.84475650     0.16600
H404        H  0.99936619  0.92741080  0.89601709     0.16600
H405        H  0.02351321  0.69815051  0.77062836     0.14900
H406        H  0.03344510  0.79398085  0.77166042     0.14900
H407        H  0.49069043  0.69249553  0.96511073     0.14900
H408        H  0.51559972  0.78524981  0.96609844     0.14900
H409        H  0.00095547  0.70352714  0.86842785     0.28200
H410        H  0.01962913  0.78217088  0.86887405     0.28200
O411        O  0.44662470  0.55072448  0.47351970    -0.72400
O412        O  0.05218072  0.56285820  0.52477958    -0.72500
O413        O  0.04969559  0.55698418  0.47210247    -0.72500
O414        O  0.44758079  0.55685519  0.52644375    -0.72600
O415        O  0.45549958  0.96732480  0.52671393    -0.72500
O416        O  0.05973919  0.97163941  0.47379197    -0.72500
O417        O  0.05911948  0.97739971  0.52668466    -0.72400
O418        O  0.45624022  0.96283081  0.47396771    -0.72500
Ni419      Ni  0.49705931  0.56144447  0.49907134     1.25400
Ni420      Ni  0.50678527  0.96526152  0.50074627     1.25400
C421        C  0.43504879  0.50784529  0.46587908     0.89800
C422        C  0.07173063  0.52448937  0.53490227     0.89700
C423        C  0.06900734  0.51616812  0.46462976     0.89700
C424        C  0.43560426  0.51548301  0.53634336     0.89900
C425        C  0.50455269  0.87383783  0.19851426    -0.11300
C426        C  0.50514938  0.90778350  0.21343090    -0.12800
C427        C  0.51559127  0.62210274  0.20038415    -0.11300
C428        C  0.51170278  0.58804028  0.21512885    -0.12800
C429        C  0.49251918  0.58489531  0.93795833    -0.14400
C430        C  0.45856121  0.62038429  0.93370085    -0.29600
H431        H  0.02227205  0.59121339  0.92949788     0.14600
H432        H  0.42737013  0.62577227  0.94708916     0.15200
C433        C  0.48547094  0.88203338  0.95263760    -0.14400
C434        C  0.52132107  0.86822595  0.93575526    -0.29600
H435        H  0.44942874  0.86391474  0.95206002     0.13400
H436        H  0.05251367  0.88671250  0.93750110     0.15200
C437        C  0.50229215  0.90817548  0.06180452    -0.14400
C438        C  0.47385763  0.86841959  0.06432084    -0.29600
H439        H  0.01933842  0.91323193  0.07586111     0.14600
H440        H  0.44600789  0.86017731  0.04961018     0.15200
C441        C  0.49264680  0.60876902  0.04844564    -0.14400
C442        C  0.52972307  0.61849317  0.06513812    -0.29600
H443        H  0.45805690  0.63014116  0.04949518     0.14600
H444        H  0.05529982  0.59525274  0.06684655     0.15200
C445        C  0.38129702  0.54079842  0.43121356    -0.14400
C446        C  0.39721813  0.50230550  0.44529247    -0.29600
H447        H  0.39718734  0.57669870  0.43420864     0.14600
H448        H  0.38243005  0.46624313  0.44139242     0.15200
C449        C  0.12076786  0.55299244  0.42982274    -0.14400
C450        C  0.10705020  0.51413740  0.44389483    -0.29600
H451        H  0.10222923  0.58821888  0.43236407     0.14600
H452        H  0.12953008  0.97576626  0.43920863     0.15200
C453        C  0.41738647  0.51638787  0.28096610    -0.11300
C454        C  0.38353944  0.52142296  0.29648350    -0.12800
C455        C  0.08882248  0.50680439  0.28185606    -0.11300
C456        C  0.12265072  0.51370340  0.29696024    -0.12800
C457        C  0.12446390  0.49585487  0.57155283    -0.14400
C458        C  0.11078265  0.53102393  0.55474938    -0.29600
H459        H  0.10879572  0.95721593  0.57022854     0.14600
H460        H  0.12798585  0.56671550  0.55620296     0.15200
C461        C  0.39793378  0.51191359  0.55718351    -0.14400
C462        C  0.37981851  0.55039538  0.57044269    -0.29600
H463        H  0.38457252  0.47564535  0.56206632     0.14600
H464        H  0.39417246  0.58680723  0.56702707     0.15200
C465        C  0.99183610  0.62171687  0.79984903    -0.11300
C466        C  0.99489683  0.58700468  0.78549757    -0.12800
C467        C  0.00662825  0.90613223  0.78644112    -0.11300
C468        C  0.00880733  0.87293269  0.80191585    -0.12800
C469        C  0.09000571  0.51136321  0.72138364    -0.11300
C470        C  0.12417399  0.51578460  0.70609332    -0.12800
C471        C  0.41981323  0.51144155  0.71931404    -0.11300
C472        C  0.38592344  0.51975341  0.70425271    -0.12800
C473        C  0.00025841  0.45249057  0.76910174     0.88500
C474        C  0.95672314  0.45811310  0.74985315    -0.51700
C475        C  0.95857358  0.99594176  0.73716495     0.11400
C476        C  0.00315400  0.02985031  0.74227919     0.22400
C477        C  0.55115171  0.45415701  0.75070870    -0.52500
C478        C  0.55081455  0.99513485  0.73788945     0.11500
C479        C  0.99749162  0.49813631  0.78617224    -0.52000
C480        C  0.50343872  0.03578602  0.77237779     0.12100
H481        H  0.92743813  0.43122150  0.74755096     0.16600
H482        H  0.00249595  0.06396375  0.73052222     0.02300
H483        H  0.58075808  0.42670532  0.74895382     0.16900
H484        H  0.99456332  0.49702348  0.80727943     0.16700
N485        N  0.83060510  0.03491445  0.63683841    -0.34600
N486        N  0.75488206  0.02244660  0.67752352    -0.55200
N487        N  0.67943790  0.00482798  0.63742435    -0.34600
N488        N  0.75470607  0.01802746  0.59676392    -0.55200
C489        C  0.86110860  0.02908804  0.65777442     0.29000
C490        C  0.86009752  0.03548573  0.61530152     0.29000
C491        C  0.64898202  0.00958983  0.65848138     0.29000
C492        C  0.64975450  0.00098306  0.61615972     0.29000
C493        C  0.79566588  0.02477213  0.69303008     0.37600
C494        C  0.71434688  0.01940161  0.69328607     0.37600
C495        C  0.79401947  0.02717616  0.58086263     0.37600
C496        C  0.71540113  0.00729066  0.58125816     0.37600
C497        C  0.91064684  0.02762370  0.64935862    -0.19900
C498        C  0.91001396  0.03206440  0.62270655    -0.19900
C499        C  0.59934220  0.00777528  0.65043432    -0.19900
C500        C  0.59986078  0.00210177  0.62386801    -0.19900
C501        C  0.78085422  0.02400344  0.71893680    -0.20900
C502        C  0.72940629  0.02097662  0.71909945    -0.20900
C503        C  0.77938433  0.02261176  0.55508841    -0.20900
C504        C  0.73000986  0.00931178  0.55535375    -0.20900
C505        C  0.84614324  0.02479763  0.68427897    -0.16300
C506        C  0.84376295  0.03667556  0.58901394    -0.16300
C507        C  0.66583534  0.99786848  0.58984871    -0.16300
C508        C  0.66408727  0.01421080  0.68486175    -0.16300
H509        H  0.94399681  0.02334591  0.66115356     0.16600
H510        H  0.94270035  0.03112719  0.61015878     0.16600
H511        H  0.56597310  0.01041015  0.66242922     0.16600
H512        H  0.56703186  0.00010239  0.61158355     0.16600
H513        H  0.80464889  0.02497779  0.73596247     0.14900
H514        H  0.70590752  0.01909710  0.73628122     0.14900
H515        H  0.80203284  0.02743737  0.53778417     0.14900
H516        H  0.70739305  0.00262483  0.53829907     0.14900
H517        H  0.79220425  0.04087710  0.63713269     0.28200
H518        H  0.71803206  0.00066479  0.63767138     0.28200
N519        N  0.67708526  0.03053635  0.36210920    -0.34600
N520        N  0.75386392  0.03650897  0.40213030    -0.55200
N521        N  0.83088501  0.02831478  0.36221372    -0.34600
N522        N  0.75396297  0.02541929  0.32187132    -0.55200
C523        C  0.64838421  0.04384285  0.38276961     0.29000
C524        C  0.64836952  0.03500471  0.34052556     0.29000
C525        C  0.85933300  0.03989608  0.38304147     0.29000
C526        C  0.85933809  0.03487229  0.34066691     0.29000
C527        C  0.71302435  0.03556450  0.41777014     0.37600
C528        C  0.79435124  0.03255558  0.41781664     0.37600
C529        C  0.71353687  0.01533422  0.30704503     0.37600
C530        C  0.79494148  0.01615270  0.30702222     0.37600
C531        C  0.60064832  0.05649545  0.37418016    -0.19900
C532        C  0.60062829  0.05088470  0.34757011    -0.19900
C533        C  0.90665939  0.05349609  0.37463975    -0.19900
C534        C  0.90665400  0.05037957  0.34791641    -0.19900
C535        C  0.72778786  0.03201583  0.44359358    -0.20900
C536        C  0.77918611  0.02995608  0.44360894    -0.20900
C537        C  0.72891197  0.00033882  0.28247913    -0.20900
C538        C  0.78046969  0.00091435  0.28245356    -0.20900
C539        C  0.66278311  0.04137918  0.40928611    -0.16300
C540        C  0.66302349  0.02211296  0.31491311    -0.16300
C541        C  0.84503901  0.02386282  0.31485715    -0.16300
C542        C  0.84477380  0.03578034  0.40945654    -0.16300
H543        H  0.56875915  0.06781566  0.38587803     0.16600
H544        H  0.56883958  0.05724047  0.33489266     0.16600
H545        H  0.93817986  0.06406544  0.38651589     0.16600
H546        H  0.93818183  0.05802904  0.33528945     0.16600
H547        H  0.70423834  0.03202062  0.46077614     0.14900
H548        H  0.80261159  0.02813669  0.46076019     0.14900
H549        H  0.70544855  0.99048585  0.26619443     0.14900
H550        H  0.80452037  0.99151959  0.26615438     0.14900
H551        H  0.71208502  0.01364579  0.36296435     0.28200
H552        H  0.79634440  0.01126757  0.36284176     0.28200
O553        O  0.53553390  0.03874410  0.96962461    -0.72400
O554        O  0.53833215  0.45134055  0.02760768    -0.72500
O555        O  0.53303964  0.43935673  0.97515491    -0.72500
O556        O  0.53861545  0.05327979  0.02218731    -0.72600
O557        O  0.94333970  0.05414679  0.02357460    -0.72500
O558        O  0.93817971  0.44294315  0.97669770    -0.72500
O559        O  0.94318703  0.45027095  0.02919377    -0.72400
O560        O  0.94424563  0.04349490  0.97116247    -0.72500
Ni561      Ni  0.53809105  0.49423534  0.99850503     1.25400
Ni562      Ni  0.93857546  0.49618933  0.00047603     1.25400
C563        C  0.98682656  0.05598064  0.96155548     0.89800
C564        C  0.98592776  0.43444146  0.03741119     0.89700
C565        C  0.97858305  0.42398127  0.96768287     0.89700
C566        C  0.98495969  0.07156796  0.03124292     0.89900
N567        N  0.98221400  0.32215234  0.13482430    -0.34600
N568        N  0.00232351  0.24838318  0.17411537    -0.55200
N569        N  0.01465284  0.17543017  0.13321800    -0.34600
N570        N  0.98774758  0.24822791  0.09411261    -0.55200
C571        C  0.97570686  0.34893445  0.15669904     0.29000
C572        C  0.96148168  0.34764068  0.11489230     0.29000
C573        C  0.01025232  0.14591124  0.15429683     0.29000
C574        C  0.01165159  0.14689820  0.11179223     0.29000
C575        C  0.00632259  0.28816555  0.18941657     0.37600
C576        C  0.01399168  0.20939593  0.18911784     0.37600
C577        C  0.97974135  0.28816019  0.07908215     0.37600
C578        C  0.00295385  0.21196663  0.07795121     0.37600
C579        C  0.95105743  0.39235860  0.15057396    -0.19900
C580        C  0.94185026  0.39141412  0.12422591    -0.19900
C581        C  0.00554958  0.09791907  0.14603592    -0.19900
C582        C  0.00684536  0.09851491  0.11929465    -0.19900
C583        C  0.02042143  0.27435414  0.21437384    -0.20900
C584        C  0.02471218  0.22431118  0.21424929    -0.20900
C585        C  0.98882158  0.27687008  0.05316849    -0.20900
C586        C  0.00396313  0.22880171  0.05248396    -0.20900
C587        C  0.99319410  0.33614850  0.18180733    -0.16300
C588        C  0.96362130  0.33454583  0.08825177    -0.16300
C589        C  0.01279043  0.16306218  0.08560405    -0.16300
C590        C  0.01250670  0.16044569  0.18076511    -0.16300
H591        H  0.94085400  0.42175136  0.16370962     0.16600
H592        H  0.92364879  0.42016844  0.11312119     0.16600
H593        H  0.00175871  0.06561926  0.15799131     0.16600
H594        H  0.00353887  0.06691408  0.10680331     0.16600
H595        H  0.02561086  0.29772511  0.23110852     0.14900
H596        H  0.03455140  0.20151628  0.23074239     0.14900
H597        H  0.98530923  0.30080682  0.03646815     0.14900
H598        H  0.01408363  0.20852480  0.03513896     0.14900
H599        H  0.00489437  0.29133220  0.13320281     0.28200
H600        H  0.02370219  0.21212299  0.13327387     0.28200
C601        C  0.00095372  0.45235816  0.23190948     0.88500
C602        C  0.54849831  0.45820597  0.25091906    -0.51700
C603        C  0.55028332  0.99722153  0.26243472     0.11400
C604        C  0.00415999  0.03216770  0.25681322     0.22400
C605        C  0.95536743  0.45974045  0.24970396    -0.52500
C606        C  0.95706359  0.00111977  0.26144673     0.11500
C607        C  0.00325558  0.49846044  0.21518200    -0.52000
C608        C  0.00549375  0.04034292  0.22715158     0.12100
H609        H  0.57745394  0.43021572  0.25296087     0.16600
H610        H  0.00518138  0.06634036  0.26844228     0.02300
H611        H  0.92470746  0.43405478  0.25101911     0.16900
H612        H  0.00369969  0.49788199  0.19402552     0.16700
N613        N  0.48805527  0.17066553  0.86573961    -0.34600
N614        N  0.50132758  0.24396174  0.82566675    -0.55200
N615        N  0.51236674  0.31793834  0.86587586    -0.34600
N616        N  0.49249808  0.24570945  0.90584667    -0.55200
C617        C  0.48025406  0.14361304  0.84413846     0.29000
C618        C  0.46954068  0.14550964  0.88627206     0.29000
C619        C  0.50429128  0.34666956  0.84478782     0.29000
C620        C  0.50811685  0.34671812  0.88716471     0.29000
C621        C  0.50633740  0.20395978  0.81051111     0.37600
C622        C  0.51138959  0.28274899  0.81037055     0.37600
C623        C  0.48862348  0.20581000  0.92119614     0.37600
C624        C  0.50851790  0.28225829  0.92128715     0.37600
C625        C  0.45714782  0.10033771  0.85105286    -0.19900
C626        C  0.45005445  0.10170931  0.87759928    -0.19900
C627        C  0.49528489  0.39437382  0.85286759    -0.19900
C628        C  0.49805846  0.39444069  0.87958566    -0.19900
C629        C  0.51928595  0.21740941  0.78535095    -0.20900
C630        C  0.52208191  0.26746453  0.78521670    -0.20900
C631        C  0.99031026  0.21519423  0.94584482    -0.20900
C632        C  0.00226462  0.26384819  0.94635921    -0.20900
C633        C  0.49523597  0.15604121  0.81854176    -0.16300
C634        C  0.47293075  0.15932740  0.91278530    -0.16300
C635        C  0.51401691  0.33128844  0.91323592    -0.16300
C636        C  0.50794630  0.33180912  0.81846082    -0.16300
H637        H  0.44641711  0.07083911  0.83829472     0.16600
H638        H  0.43318407  0.07327498  0.88923575     0.16600
H639        H  0.48796724  0.42604691  0.84078274     0.16600
H640        H  0.49277038  0.42598575  0.89202246     0.16600
H641        H  0.52482637  0.19376623  0.76868904     0.14900
H642        H  0.53069958  0.29003141  0.76851034     0.14900
H643        H  0.99049279  0.19072586  0.96241538     0.14900
H644        H  0.01290337  0.28432005  0.96344363     0.14900
H645        H  0.50994671  0.20163636  0.86667782     0.28200
H646        H  0.52541234  0.28206937  0.86578810     0.28200
O647        O  0.95106247  0.04617143  0.47174441    -0.72400
O648        O  0.55112383  0.05530144  0.52413495    -0.72500
O649        O  0.55107541  0.04942221  0.47140190    -0.72500
O650        O  0.95138202  0.05024827  0.52473005    -0.72600
O651        O  0.95731595  0.47439582  0.52853445    -0.72500
O652        O  0.55675190  0.47866651  0.47588745    -0.72500
O653        O  0.55619978  0.48603057  0.52842078    -0.72400
O654        O  0.95499983  0.47019715  0.47596555    -0.72500
Ni655      Ni  0.00145451  0.05478680  0.49756592     1.25400
Ni656      Ni  0.00692593  0.47263282  0.50193450     1.25400
C657        C  0.93853921  0.00386017  0.46368617     0.89800
C658        C  0.57041241  0.01698722  0.53448322     0.89700
C659        C  0.57101319  0.00868658  0.46423874     0.89700
C660        C  0.93815892  0.00881386  0.53413197     0.89900
C661        C  0.99587822  0.37440587  0.20111567    -0.11300
C662        C  0.99865244  0.40807819  0.21606608    -0.12800
C663        C  0.01163848  0.12240591  0.20046314    -0.11300
C664        C  0.00908281  0.08723843  0.21456036    -0.12800
C665        C  0.99078827  0.08976297  0.93921646    -0.14400
C666        C  0.95356677  0.11935480  0.93112942    -0.29600
H667        H  0.52892779  0.08378830  0.92537374     0.14600
H668        H  0.91707348  0.11878811  0.94054980     0.15200
C669        C  0.97366999  0.38330280  0.94915787    -0.14400
C670        C  0.01116518  0.36782719  0.93375904    -0.29600
H671        H  0.93687239  0.36710567  0.94701679     0.13400
H672        H  0.55589388  0.39165818  0.93173791     0.15200
C673        C  0.99048528  0.39910594  0.05894704    -0.14400
C674        C  0.95251346  0.37315187  0.06864071    -0.29600
H675        H  0.53966612  0.40146170  0.07007622     0.14600
H676        H  0.91449422  0.37821383  0.06153138     0.15200
C677        C  0.98272485  0.11346945  0.04918432    -0.14400
C678        C  0.02038512  0.12526296  0.06511688    -0.29600
H679        H  0.94719518  0.13315840  0.05086698     0.14600
H680        H  0.56400242  0.09868590  0.06726464     0.15200
C681        C  0.88433680  0.03930092  0.42960152    -0.14400
C682        C  0.90034347  0.99991780  0.44305714    -0.29600
H683        H  0.90066206  0.07487827  0.43300978     0.14600
H684        H  0.88503696  0.96424294  0.43873524     0.15200
C685        C  0.62265084  0.04571898  0.42935886    -0.14400
C686        C  0.61023571  0.00701281  0.44396554    -0.29600
H687        H  0.60227621  0.08012333  0.43130587     0.14600
H688        H  0.62662243  0.48291727  0.44148780     0.15200
C689        C  0.91789066  0.01331934  0.27982894    -0.11300
C690        C  0.88448758  0.01957326  0.29542551    -0.12800
C691        C  0.59003375  0.00814244  0.28053210    -0.11300
C692        C  0.62362174  0.01543845  0.29575122    -0.12800
C693        C  0.62703048  0.98777224  0.56977844    -0.14400
C694        C  0.60920181  0.02384558  0.55456884    -0.29600
H695        H  0.61014427  0.46400181  0.56831103     0.14600
H696        H  0.62340908  0.06054431  0.55725886     0.15200
C697        C  0.89926804  0.00530532  0.55448183    -0.14400
C698        C  0.88264167  0.04350691  0.56849504    -0.29600
H699        H  0.88422740  0.96934576  0.55856169     0.14600
H700        H  0.89892748  0.07935665  0.56592012     0.15200
C701        C  0.49778127  0.11737829  0.79936624    -0.11300
C702        C  0.50066085  0.08230540  0.78528748    -0.12800
C703        C  0.50609776  0.40349319  0.78376755    -0.11300
C704        C  0.50723551  0.36947204  0.79865628    -0.12800
C705        C  0.59104645  0.00631543  0.72000398    -0.11300
C706        C  0.62489085  0.01174058  0.70459482    -0.12800
C707        C  0.91861630  0.00782815  0.71904075    -0.11300
C708        C  0.88545648  0.01685470  0.70361826    -0.12800
C709        C  0.00486668  0.95012476  0.77002506     0.88500
C710        C  0.95944091  0.95396375  0.75168178    -0.51700
C711        C  0.95781905  0.50080097  0.73610490     0.11400
C712        C  0.00242552  0.53374431  0.74274408     0.22400
C713        C  0.55051838  0.95274226  0.75187246    -0.52500
C714        C  0.55117711  0.49697680  0.73716452     0.11500
C715        C  0.00270685  0.99674958  0.78633402    -0.52000
C716        C  0.50531348  0.53679777  0.77240226     0.12100
H717        H  0.93054802  0.92643935  0.75048892     0.16600
H718        H  0.00328244  0.56845427  0.73151368     0.02300
H719        H  0.58028906  0.92537013  0.75063529     0.16900
H720        H  0.00142931  0.99690621  0.80749318     0.16700
N721        N  0.82947129  0.53391415  0.63666169    -0.34600
N722        N  0.75429365  0.52392239  0.67703227    -0.55200
N723        N  0.67793354  0.51271266  0.63690796    -0.34600
N724        N  0.75247597  0.52805636  0.59669864    -0.55200
C725        C  0.85805766  0.54083616  0.65800475     0.29000
C726        C  0.85596797  0.54940647  0.61579901     0.29000
C727        C  0.64850404  0.52054598  0.65801386     0.29000
C728        C  0.64824604  0.51647988  0.61569866     0.29000
C729        C  0.79563421  0.51765212  0.69191371     0.37600
C730        C  0.71443044  0.51339525  0.69225713     0.37600
C731        C  0.79325767  0.53078117  0.58115404     0.37600
C732        C  0.71408151  0.51438483  0.58135229     0.37600
C733        C  0.90363318  0.56052739  0.65063824    -0.19900
C734        C  0.90222081  0.56617388  0.62401968    -0.19900
C735        C  0.59941052  0.52898336  0.65005013    -0.19900
C736        C  0.59922584  0.52609682  0.62334305    -0.19900
C737        C  0.78187570  0.50381333  0.71689385    -0.20900
C738        C  0.73038580  0.50144485  0.71715411    -0.20900
C739        C  0.78028298  0.52009052  0.55564811    -0.20900
C740        C  0.73024741  0.50922050  0.55583764    -0.20900
C741        C  0.84527451  0.52697041  0.68366302    -0.16300
C742        C  0.84167049  0.54440554  0.58943312    -0.16300
C743        C  0.66389888  0.50997349  0.58967845    -0.16300
C744        C  0.66382417  0.51638113  0.68424733    -0.16300
H745        H  0.93486293  0.56944218  0.66311096     0.16600
H746        H  0.93240973  0.57986503  0.61203176     0.16600
H747        H  0.56686575  0.53573617  0.66222886     0.16600
H748        H  0.56670760  0.53072029  0.61097153     0.16600
H749        H  0.80630287  0.49682347  0.73331112     0.14900
H750        H  0.70735238  0.49188335  0.73373774     0.14900
H751        H  0.80415492  0.52018128  0.53858193     0.14900
H752        H  0.70814379  0.49957213  0.53900994     0.14900
H753        H  0.79676349  0.51392581  0.63611716     0.28200
H754        H  0.71466073  0.49974845  0.63702256     0.28200
N755        N  0.67553175  0.53940756  0.36376553    -0.34600
N756        N  0.75209873  0.54425076  0.40398141    -0.55200
N757        N  0.82935641  0.53262756  0.36429900    -0.34600
N758        N  0.75273858  0.53073028  0.32372466    -0.55200
C759        C  0.64687748  0.55368338  0.38425631     0.29000
C760        C  0.64692713  0.54314666  0.34211375     0.29000
C761        C  0.85802001  0.54346783  0.38517378     0.29000
C762        C  0.85847258  0.53709466  0.34281447     0.29000
C763        C  0.71104331  0.54454445  0.41947511     0.37600
C764        C  0.79225583  0.53909904  0.41979716     0.37600
C765        C  0.71208234  0.52063422  0.30902999     0.37600
C766        C  0.79365043  0.51953944  0.30913681     0.37600
C767        C  0.59925569  0.56633215  0.37549802    -0.19900
C768        C  0.59926712  0.55963229  0.34894931    -0.19900
C769        C  0.90618742  0.55432265  0.37686832    -0.19900
C770        C  0.90646555  0.55036118  0.35017827    -0.19900
C771        C  0.72535225  0.54046081  0.44535071    -0.20900
C772        C  0.77667443  0.53690854  0.44554277    -0.20900
C773        C  0.72729345  0.50369545  0.28479579    -0.20900
C774        C  0.77890360  0.50310912  0.28484383    -0.20900
C775        C  0.66108205  0.55169288  0.41080339    -0.16300
C776        C  0.66155085  0.52873145  0.31670928    -0.16300
C777        C  0.84402390  0.52612114  0.31699242    -0.16300
C778        C  0.84286486  0.54088821  0.41158180    -0.16300
H779        H  0.56738162  0.57818709  0.38706504     0.16600
H780        H  0.56751276  0.56554361  0.33619300     0.16600
H781        H  0.93810317  0.56355474  0.38878749     0.16600
H782        H  0.93863163  0.55594496  0.33766357     0.16600
H783        H  0.70158265  0.54107513  0.46245314     0.14900
H784        H  0.79977777  0.53436422  0.46278692     0.14900
H785        H  0.70368949  0.49319753  0.26868541     0.14900
H786        H  0.80282558  0.49195562  0.26880593     0.14900
H787        H  0.71030434  0.52223632  0.36483139     0.28200
H788        H  0.79396056  0.51741405  0.36491637     0.28200
O789        O  0.53317482  0.53703526  0.96946272    -0.72400
O790        O  0.53898168  0.95547844  0.02890783    -0.72500
O791        O  0.53340179  0.94109131  0.97655483    -0.72500
O792        O  0.53600447  0.54921188  0.02203734    -0.72600
O793        O  0.94364062  0.54928969  0.02411450    -0.72500
O794        O  0.94160318  0.94480671  0.97792919    -0.72500
O795        O  0.94326966  0.95514896  0.03021710    -0.72400
O796        O  0.94130214  0.54187199  0.97161420    -0.72500
Ni797      Ni  0.53960599  0.99711365  0.99924830     1.25400
Ni798      Ni  0.94010425  0.99950175  0.00073282     1.25400
C799        C  0.98344416  0.55481400  0.96167625     0.89800
C800        C  0.98555190  0.94086615  0.03973487     0.89700
C801        C  0.98266770  0.92516701  0.97021928     0.89700
C802        C  0.98576707  0.56573459  0.03161408     0.89900
N803        N  0.98904404  0.81992454  0.13249467    -0.34600
N804        N  0.00314523  0.74671215  0.17327891    -0.55200
N805        N  0.01436968  0.67152987  0.13360551    -0.34600
N806        N  0.99214351  0.74361038  0.09302621    -0.55200
C807        C  0.98146505  0.84753862  0.15401331     0.29000
C808        C  0.97016059  0.84517025  0.11194962     0.29000
C809        C  0.00881739  0.64309032  0.15504201     0.29000
C810        C  0.01144795  0.64211645  0.11251750     0.29000
C811        C  0.00664854  0.78708787  0.18819198     0.37600
C812        C  0.01227224  0.70815063  0.18908276     0.37600
C813        C  0.98655623  0.78297847  0.07725423     0.37600
C814        C  0.00683258  0.70589838  0.07766345     0.37600
C815        C  0.95824275  0.89121681  0.14704050    -0.19900
C816        C  0.95064806  0.88950867  0.12059419    -0.19900
C817        C  0.00316085  0.59487254  0.14735587    -0.19900
C818        C  0.00515944  0.59422992  0.12060904    -0.19900
C819        C  0.01762694  0.77408047  0.21368520    -0.20900
C820        C  0.02072833  0.72401228  0.21428866    -0.20900
C821        C  0.99687554  0.76996611  0.05170404    -0.20900
C822        C  0.01008482  0.72135382  0.05199018    -0.20900
C823        C  0.99600576  0.83512550  0.17968547    -0.16300
C824        C  0.97235654  0.83060401  0.08544291    -0.16300
C825        C  0.01444275  0.65701646  0.08613368    -0.16300
C826        C  0.01082960  0.65877930  0.18135010    -0.16300
H827        H  0.94736794  0.92106636  0.15973763     0.16600
H828        H  0.93299589  0.91796219  0.10905649     0.16600
H829        H  0.99828115  0.56324126  0.15969940     0.16600
H830        H  0.00157034  0.56214305  0.10849898     0.16600
H831        H  0.02169567  0.79806220  0.23026301     0.14900
H832        H  0.02829065  0.70183345  0.23132635     0.14900
H833        H  0.99584377  0.79321606  0.03464733     0.14900
H834        H  0.02064569  0.69986286  0.03513368     0.14900
H835        H  0.01069769  0.78827775  0.13164181     0.28200
H836        H  0.02425638  0.70799879  0.13323529     0.28200
C837        C  0.00167475  0.95219423  0.22952547     0.88500
C838        C  0.55021396  0.95530116  0.24805395    -0.51700
C839        C  0.54877481  0.50110998  0.26450596     0.11400
C840        C  0.00415804  0.53254382  0.25897317     0.22400
C841        C  0.95576709  0.95928423  0.24712444    -0.52500
C842        C  0.95693170  0.50167766  0.26392999     0.11500
C843        C  0.00404880  0.99848880  0.21292585    -0.52000
C844        C  0.00505943  0.54047397  0.22923776     0.12100
H845        H  0.57942444  0.92741225  0.24947547     0.16600
H846        H  0.00554504  0.56679604  0.27051791     0.02300
H847        H  0.92521809  0.93344679  0.24831188     0.16900
H848        H  0.00492176  0.99815594  0.19176987     0.16700
N849        N  0.48751764  0.66991386  0.86690238    -0.34600
N850        N  0.50194767  0.74383876  0.82731568    -0.55200
N851        N  0.51098274  0.81769929  0.86805031    -0.34600
N852        N  0.48824741  0.74517904  0.90749943    -0.55200
C853        C  0.48245507  0.64252689  0.84516393     0.29000
C854        C  0.46856265  0.64412621  0.88708469     0.29000
C855        C  0.50538827  0.84697339  0.84694174     0.29000
C856        C  0.50833306  0.84645692  0.88942588     0.29000
C857        C  0.50794210  0.70413453  0.81199428     0.37600
C858        C  0.51122041  0.78309382  0.81221074     0.37600
C859        C  0.48239193  0.70517076  0.92262512     0.37600
C860        C  0.50268992  0.78167551  0.92347317     0.37600
C861        C  0.46086768  0.59829740  0.85168370    -0.19900
C862        C  0.45175191  0.59946779  0.87805940    -0.19900
C863        C  0.50001473  0.89509604  0.85510830    -0.19900
C864        C  0.50233777  0.89479619  0.88185166    -0.19900
C865        C  0.52080940  0.71824986  0.78693547    -0.20900
C866        C  0.52239260  0.76835050  0.78701392    -0.20900
C867        C  0.98399574  0.71691453  0.94877164    -0.20900
C868        C  0.99845701  0.76483327  0.94965710    -0.20900
C869        C  0.49790377  0.65577432  0.81973580    -0.16300
C870        C  0.46900315  0.65820713  0.91366540    -0.16300
C871        C  0.51136029  0.83049291  0.91560472    -0.16300
C872        C  0.50769630  0.83209677  0.82051584    -0.16300
H873        H  0.45223527  0.56836557  0.83876510     0.16600
H874        H  0.43515643  0.57039506  0.88934697     0.16600
H875        H  0.49539202  0.92728226  0.84306970     0.16600
H876        H  0.49909974  0.92654946  0.89430670     0.16600
H877        H  0.52714254  0.69498679  0.77019394     0.14900
H878        H  0.53088295  0.79129575  0.77043782     0.14900
H879        H  0.98066459  0.69273517  0.96536409     0.14900
H880        H  0.00799655  0.78481296  0.96708384     0.14900
H881        H  0.50777152  0.70179997  0.86827808     0.28200
H882        H  0.52096465  0.78104749  0.86796452     0.28200
O883        O  0.94879449  0.55146122  0.47409900    -0.72400
O884        O  0.54832044  0.56698570  0.52465898    -0.72500
O885        O  0.54737418  0.55947016  0.47206831    -0.72500
O886        O  0.95116429  0.55573241  0.52693622    -0.72600
O887        O  0.95797357  0.96896047  0.52598609    -0.72500
O888        O  0.55776058  0.96832456  0.47457826    -0.72500
O889        O  0.55677381  0.97416612  0.52742842    -0.72400
O890        O  0.95855654  0.96499282  0.47329924    -0.72500
Ni891      Ni  0.00019413  0.55968172  0.49942072     1.25400
Ni892      Ni  0.00914581  0.96785573  0.50002737     1.25400
C893        C  0.93521613  0.50920899  0.46642329     0.89800
C894        C  0.56874906  0.52934858  0.53507849     0.89700
C895        C  0.56854210  0.51910939  0.46520514     0.89700
C896        C  0.93826036  0.51453265  0.53669191     0.89900
C897        C  0.99776393  0.87402260  0.19871899    -0.11300
C898        C  0.99986645  0.90793374  0.21358135    -0.12800
C899        C  0.01014477  0.62156650  0.20157921    -0.11300
C900        C  0.00819284  0.58714385  0.21627130    -0.12800
C901        C  0.98647226  0.58922782  0.93963474    -0.14400
C902        C  0.95013855  0.62113512  0.93311671    -0.29600
H903        H  0.52600177  0.58340018  0.92582165     0.14600
H904        H  0.91514471  0.62265924  0.94396889     0.15200
C905        C  0.97909307  0.88305408  0.95251426    -0.14400
C906        C  0.01696725  0.86775847  0.93728822    -0.29600
H907        H  0.94260815  0.86619804  0.95041396     0.13400
H908        H  0.55585844  0.88873641  0.93445367     0.15200
C909        C  0.98852738  0.90784210  0.06238889    -0.14400
C910        C  0.96060149  0.86764113  0.06484692    -0.29600
H911        H  0.53365415  0.91312228  0.07498373     0.14600
H912        H  0.93343786  0.85885786  0.04988687     0.15200
C913        C  0.98436437  0.60720371  0.04986284    -0.14400
C914        C  0.02170894  0.61807311  0.06617131    -0.29600
H915        H  0.94939497  0.62791997  0.05122442     0.14600
H916        H  0.56260620  0.59473188  0.06606298     0.15200
C917        C  0.88223564  0.54431158  0.43182512    -0.14400
C918        C  0.89625611  0.50544438  0.44621617    -0.29600
H919        H  0.90071614  0.57915737  0.43422948     0.14600
H920        H  0.87920412  0.47020762  0.44275262     0.15200
C921        C  0.62082197  0.55658808  0.43072720    -0.14400
C922        C  0.60760834  0.51769642  0.44492714    -0.29600
H923        H  0.60115828  0.59133034  0.43288865     0.14600
H924        H  0.62963488  0.97236729  0.44074637     0.15200
C925        C  0.91753965  0.51421380  0.28224718    -0.11300
C926        C  0.88367370  0.52073522  0.29762152    -0.12800
C927        C  0.58845490  0.51308979  0.28251451    -0.11300
C928        C  0.62204178  0.52125365  0.29764090    -0.12800
C929        C  0.62502260  0.50062406  0.56988904    -0.14400
C930        C  0.60746939  0.53695967  0.55490013    -0.29600
H931        H  0.61178190  0.95125550  0.56850287     0.14600
H932        H  0.62154994  0.57370038  0.55762259     0.15200
C933        C  0.90060875  0.51171908  0.55748091    -0.14400
C934        C  0.88078359  0.55100464  0.56927011    -0.29600
H935        H  0.88815710  0.47559607  0.56328025     0.14600
H936        H  0.89355610  0.58753768  0.56467392     0.15200
C937        C  0.50113790  0.61757993  0.80024734    -0.11300
C938        C  0.50361378  0.58293692  0.78581228    -0.12800
C939        C  0.50462349  0.90306479  0.78526409    -0.11300
C940        C  0.50614586  0.86975726  0.80064361    -0.12800
C941        C  0.59094750  0.50834742  0.71920365    -0.11300
C942        C  0.62480346  0.51348362  0.70387213    -0.12800
C943        C  0.91918783  0.51379019  0.71763770    -0.11300
C944        C  0.88560843  0.52157002  0.70241099    -0.12800
loop_ 
_geom_bond_atom_site_label_1 
_geom_bond_atom_site_label_2 
_geom_bond_distance 
_geom_bond_site_symmetry_2 
_ccdc_geom_bond_type 
C1            C2   1.535       .  S
C1            C7   1.529       .  S
C1          C477   1.529       .  S
C1          C703   1.464       .  S
C2            H9   1.086       .  S
C2          C239   1.367       .  D
C3            C4   1.542   1_565  S
C3          C238   1.367       .  D
C3          C235   1.448   1_565  S
C4          C480   1.539       .  S
C4          C478   1.543   1_545  S
C4           H10   1.111       .  S
C5          C473   1.531       .  S
C5           H11   1.087       .  S
C5          C242   1.364       .  D
C6          C476   1.542   1_565  S
C6          C241   1.363       .  D
C6          C233   1.443   1_565  S
C7           H12   1.087       .  S
C7          C716   1.360       .  D
C8          C476   1.537       .  S
C8          C715   1.360   1_545  D
C8          C230   1.436   1_455  S
N13          C18   1.355       .  A
N13          C17   1.357       .  A
N13          H45   1.033       .  S
N14          C21   1.352       .  A
N14          C22   1.351       .  A
N15          C20   1.356       .  A
N15          C19   1.356       .  A
N15          H46   1.036   1_545  S
N16          C23   1.353       .  A
N16          C24   1.353       .  A
C17          C25   1.389       .  A
C17          C33   1.422       .  A
C18          C34   1.421       .  A
C18          C26   1.388       .  A
C19          C27   1.389       .  A
C19          C36   1.419       .  A
C20          C35   1.417       .  A
C20          C28   1.386       .  A
C21          C33   1.419       .  A
C21          C29   1.388       .  A
C22          C36   1.417       .  A
C22          C30   1.387       .  A
C23          C31   1.388       .  A
C23          C34   1.420       .  A
C24          C32   1.386       .  A
C24          C35   1.417       .  A
C25          C26   1.374       .  A
C25          H37   1.083       .  S
C26          H38   1.082       .  S
C27          C28   1.373       .  A
C27          H39   1.083       .  S
C28          H40   1.083       .  S
C29          C30   1.376       .  A
C29          H41   1.082       .  S
C30          H42   1.082       .  S
C31          C32   1.369       .  A
C31          H43   1.082       .  S
C32          H44   1.082       .  S
C33         C236   1.459       .  S
C34         C226   1.489       .  S
C35         C221   1.491   1_545  S
C36         C234   1.454       .  S
N47          C52   1.353       .  A
N47          C51   1.354       .  A
N47          H79   1.037       .  S
N48          C55   1.352       .  A
N48          C56   1.353       .  A
N49          C54   1.354       .  A
N49          C53   1.355       .  A
N49          H80   1.039       .  S
N50          C57   1.354       .  A
N50          C58   1.353       .  A
C51          C59   1.389       .  A
C51          C67   1.418       .  A
C52          C68   1.416       .  A
C52          C60   1.388       .  A
C53          C61   1.387       .  A
C53          C70   1.416       .  A
C54          C69   1.416       .  A
C54          C62   1.388       .  A
C55          C67   1.418       .  A
C55          C63   1.388       .  A
C56          C70   1.414       .  A
C56          C64   1.386       .  A
C57          C65   1.387   1_545  A
C57          C68   1.417       .  A
C58          C66   1.387   1_545  A
C58          C69   1.417       .  A
C59          C60   1.376       .  A
C59          H71   1.082       .  S
C60          H72   1.083       .  S
C61          C62   1.376       .  A
C61          H73   1.082       .  S
C62          H74   1.083       .  S
C63          C64   1.370       .  A
C63          H75   1.082       .  S
C64          H76   1.082       .  S
C65          C66   1.377       .  A
C65          H77   1.082       .  S
C66          H78   1.082       .  S
C67         C213   1.487       .  S
C68         C220   1.457       .  S
C69         C218   1.455       .  S
C70         C209   1.489       .  S
O81        Ni325   1.904   1_546  S
O81         C563   1.277   1_455  A
O82         Ni89   1.898   1_554  S
O82         C564   1.275   1_455  A
O83         Ni89   1.934       .  S
O83         C565   1.286   1_455  A
O84        Ni325   1.933   1_545  S
O84         C566   1.285   1_455  A
O85        Ni326   1.908   1_545  S
O85          C94   1.277       .  A
O86         Ni90   1.904   1_556  S
O86          C93   1.276       .  A
O87         Ni90   1.936       .  S
O87          C92   1.286       .  A
O88        Ni326   1.935   1_546  S
O88          C91   1.285       .  A
Ni89        O317   1.901       .  S
Ni89        O320   1.937   1_556  S
Ni89       Ni562   2.390   1_456  S
Ni90        O321   1.904       .  S
Ni90        O324   1.936   1_554  S
Ni90       Ni561   2.391   1_554  S
C91         C193   1.471       .  S
C91         O553   1.276       .  A
C92         C201   1.471       .  S
C92         O554   1.276       .  A
C93         C197   1.471       .  S
C93         O555   1.285       .  A
C94         C205   1.477       .  S
C94         O556   1.286       .  A
N95         C100   1.353       .  A
N95          C99   1.354       .  A
N95         H127   1.035       .  S
N96         C103   1.351       .  A
N96         C104   1.350       .  A
N97         C102   1.356       .  A
N97         C101   1.356       .  A
N97         H128   1.037       .  S
N98         C105   1.352       .  A
N98         C106   1.354       .  A
C99         C107   1.388       .  A
C99         C115   1.417       .  A
C100        C116   1.418       .  A
C100        C108   1.388       .  A
C101        C109   1.389       .  A
C101        C118   1.420       .  A
C102        C117   1.417       .  A
C102        C110   1.386       .  A
C103        C115   1.412       .  A
C103        C111   1.387       .  A
C104        C118   1.411       .  A
C104        C112   1.387       .  A
C105        C113   1.387       .  A
C105        C116   1.416       .  A
C106        C114   1.386       .  A
C106        C117   1.417       .  A
C107        C108   1.376       .  A
C107        H119   1.083       .  S
C108        H120   1.082       .  S
C109        C110   1.374       .  A
C109        H121   1.081       .  S
C110        H122   1.082       .  S
C111        C112   1.374       .  A
C111        H123   1.083       .  S
C112        H124   1.082       .  S
C113        C114   1.372       .  A
C113        H125   1.082       .  S
C114        H126   1.082       .  S
C115        C189   1.452       .  S
C116        C202   1.485       .  S
C117        C206   1.495       .  S
C118        C191   1.452       .  S
C129        C135   1.528       .  S
C129        C133   1.531       .  S
C129        C602   1.536       .  S
C129        C190   1.469       .  S
C130        C601   1.533       .  S
C130        H137   1.087       .  S
C130        C367   1.365       .  D
C131        C604   1.542   1_565  S
C131        C366   1.366       .  D
C131        C219   1.447   1_565  S
C132        C136   1.540       .  S
C132        C134   1.545   1_545  S
C132        C603   1.542   1_545  S
C132        H138   1.111       .  S
C133        H139   1.087       .  S
C133        C370   1.364       .  D
C134        C369   1.363       .  D
C134        C217   1.446   1_565  S
C135        H140   1.087       .  S
C135        C372   1.360       .  D
C136        C371   1.362   1_545  D
C136        C192   1.442       .  S
N141        C146   1.355       .  A
N141        C145   1.352       .  A
N141        H173   1.036   1_655  S
N142        C149   1.349       .  A
N142        C150   1.350   1_655  A
N143        C148   1.352   1_455  A
N143        C147   1.354   1_455  A
N143        H174   1.037       .  S
N144        C151   1.352       .  A
N144        C152   1.352       .  A
C145        C153   1.388       .  A
C145        C161   1.415       .  A
C146        C162   1.417       .  A
C146        C154   1.387       .  A
C147        C155   1.389       .  A
C147        C164   1.415       .  A
C148        C163   1.413   1_655  A
C148        C156   1.386       .  A
C149        C161   1.409       .  A
C149        C157   1.387   1_655  A
C150        C164   1.409   1_455  A
C150        C158   1.386       .  A
C151        C162   1.415       .  A
C151        C631   1.387       .  A
C152        C163   1.414   1_655  A
C152        C632   1.386   1_655  A
C153        C154   1.377       .  A
C153        H165   1.083       .  S
C154        H166   1.082       .  S
C155        C156   1.375       .  A
C155        H167   1.082       .  S
C156        H168   1.082       .  S
C157        C158   1.374       .  A
C157        H169   1.082       .  S
C158        H170   1.083       .  S
C159        C160   1.372       .  A
C159        C623   1.387       .  A
C159        H171   1.083       .  S
C160        C624   1.386       .  A
C160        H172   1.082       .  S
C161        C229   1.446       .  S
C162        C666   1.489       .  S
C163        C670   1.484       .  S
C164        C232   1.448       .  S
O175       Ni183   1.914       .  S
O175        C185   1.280       .  A
O176       Ni655   1.908       .  S
O176        C186   1.278       .  A
O177       Ni655   1.928       .  S
O177        C187   1.284       .  A
O178       Ni183   1.930       .  S
O178        C188   1.284       .  A
O179       Ni184   1.902       .  S
O179        C424   1.277       .  A
O180       Ni656   1.905       .  S
O180        C423   1.277       .  A
O181       Ni656   1.928       .  S
O181        C422   1.284       .  A
O182       Ni184   1.922       .  S
O182        C421   1.281       .  A
Ni183       O648   1.910       .  S
Ni183       O649   1.926       .  S
Ni183      Ni420   2.389   1_545  S
Ni184       O652   1.905       .  S
Ni184       O653   1.921       .  S
Ni184      Ni419   2.391       .  S
C185        C210   1.480   1_545  S
C185        O418   1.283   1_545  A
C186        C222   1.476       .  S
C186        O417   1.285   1_545  A
C187        C214   1.472       .  S
C187        O416   1.278   1_545  A
C188        C225   1.473       .  S
C188        O415   1.278   1_545  A
C189        C190   1.207       .  T
C191        C192   1.207       .  T
C193        H667   1.088       .  S
C193        C194   1.338       .  D
C194        H196   1.086       .  S
C194        C634   1.486       .  S
H195        C665   1.088   1_455  S
C197        H199   1.087       .  S
C197        C198   1.339       .  D
C198        H672   1.086       .  S
C198        C635   1.485       .  S
H200        C670   1.086       .  S
C201        H675   1.088       .  S
C201        C202   1.338       .  D
C202        H204   1.086       .  S
H203        C673   1.088   1_455  S
C205        H207   1.087       .  S
C205        C206   1.343       .  D
C206        H680   1.086       .  S
H208        C678   1.086       .  S
C209        H211   1.086       .  S
C209        C210   1.347   1_545  D
C210        H212   1.087       .  S
C213        H215   1.086       .  S
C213        C214   1.341       .  D
C214        H452   1.088   1_545  S
H216        C450   1.088       .  S
C217        C218   1.209       .  T
C219        C220   1.210       .  T
C221        H459   1.086       .  S
C221        C222   1.341   1_565  D
C222        H224   1.087       .  S
H223        C457   1.086       .  S
C225        H227   1.087   1_545  S
C225        C226   1.342       .  D
C226        H228   1.086       .  S
C229        C230   1.203       .  T
C231        C473   1.465   1_655  S
C231        C232   1.205       .  T
C233        C234   1.208       .  T
C235        C236   1.211       .  T
C237        C238   1.536       .  S
C237        C243   1.528       .  S
C237        C713   1.532       .  S
C237        C939   1.467       .  S
C238        H245   1.086       .  S
C239        C240   1.542       .  S
C239        C471   1.448       .  S
C240        C716   1.540       .  S
C240        C714   1.542       .  S
C240        H246   1.111       .  S
C241        C709   1.531       .  S
C241        H247   1.087       .  S
C242        C712   1.543       .  S
C242        C469   1.444       .  S
C243        H248   1.087       .  S
C243        C480   1.359   1_565  D
C244        C712   1.540   1_655  S
C244        C479   1.360       .  D
C244        C466   1.439       .  S
N249        C254   1.354       .  A
N249        C253   1.353       .  A
N249        H281   1.033       .  S
N250        C257   1.354       .  A
N250        C258   1.353       .  A
N251        C256   1.354       .  A
N251        C255   1.354       .  A
N251        H282   1.035       .  S
N252        C259   1.352       .  A
N252        C260   1.352       .  A
C253        C261   1.387       .  A
C253        C269   1.417       .  A
C254        C270   1.419       .  A
C254        C262   1.389       .  A
C255        C263   1.389       .  A
C255        C272   1.418       .  A
C256        C271   1.414       .  A
C256        C264   1.386       .  A
C257        C269   1.418       .  A
C257        C265   1.387       .  A
C258        C272   1.417       .  A
C258        C266   1.387       .  A
C259        C267   1.389       .  A
C259        C270   1.419       .  A
C260        C268   1.386       .  A
C260        C271   1.414       .  A
C261        C262   1.377       .  A
C261        H273   1.083       .  S
C262        H274   1.082       .  S
C263        C264   1.375       .  A
C263        H275   1.082       .  S
C264        H276   1.083       .  S
C265        C266   1.376       .  A
C265        H277   1.082       .  S
C266        H278   1.082       .  S
C267        C268   1.369       .  A
C267        H279   1.082       .  S
C268        H280   1.082       .  S
C269        C472   1.457       .  S
C270        C462   1.486       .  S
C271        C457   1.486       .  S
C272        C470   1.454       .  S
N283        C288   1.352       .  A
N283        C287   1.354       .  A
N283        H315   1.036       .  S
N284        C291   1.351       .  A
N284        C292   1.351       .  A
N285        C290   1.354       .  A
N285        C289   1.353       .  A
N285        H316   1.036       .  S
N286        C293   1.354       .  A
N286        C294   1.353       .  A
C287        C295   1.388       .  A
C287        C303   1.416       .  A
C288        C304   1.415       .  A
C288        C296   1.388       .  A
C289        C297   1.388       .  A
C289        C306   1.415       .  A
C290        C305   1.416       .  A
C290        C298   1.389       .  A
C291        C303   1.416       .  A
C291        C299   1.388       .  A
C292        C306   1.413       .  A
C292        C300   1.387       .  A
C293        C301   1.387       .  A
C293        C304   1.417       .  A
C294        C302   1.387       .  A
C294        C305   1.417       .  A
C295        C296   1.376       .  A
C295        H307   1.082       .  S
C296        H308   1.083       .  S
C297        C298   1.375       .  A
C297        H309   1.083       .  S
C298        H310   1.083       .  S
C299        C300   1.370       .  A
C299        H311   1.082       .  S
C300        H312   1.082       .  S
C301        C302   1.376       .  A
C301        H313   1.082       .  S
C302        H314   1.082       .  S
C303        C449   1.484       .  S
C304        C456   1.453       .  S
C305        C454   1.455       .  S
C306        C445   1.480       .  S
O317        C799   1.276   1_455  A
O318       Ni325   1.903       .  S
O318        C800   1.276   1_455  A
O319       Ni325   1.935   1_556  S
O319        C801   1.286   1_455  A
O320        C802   1.286   1_455  A
O321        C330   1.277       .  A
O322       Ni326   1.905   1_556  S
O322        C329   1.277       .  A
O323       Ni326   1.935       .  S
O323        C328   1.285       .  A
O324        C327   1.286       .  A
Ni325      Ni798   2.390   1_455  S
Ni326      Ni797   2.391   1_554  S
C327        C429   1.470       .  S
C327        O789   1.276       .  A
C328        C437   1.470       .  S
C328        O790   1.276       .  A
C329        C433   1.476       .  S
C329        O791   1.286       .  A
C330        C441   1.472       .  S
C330        O792   1.285       .  A
N331        C336   1.354       .  A
N331        C335   1.354       .  A
N331        H363   1.037       .  S
N332        C339   1.350       .  A
N332        C340   1.350       .  A
N333        C338   1.354       .  A
N333        C337   1.355       .  A
N333        H364   1.037       .  S
N334        C341   1.353       .  A
N334        C342   1.353       .  A
C335        C343   1.387       .  A
C335        C351   1.414       .  A
C336        C352   1.418       .  A
C336        C344   1.388       .  A
C337        C345   1.389       .  A
C337        C354   1.418       .  A
C338        C353   1.416       .  A
C338        C346   1.387       .  A
C339        C351   1.410       .  A
C339        C347   1.387       .  A
C340        C354   1.409       .  A
C340        C348   1.386       .  A
C341        C349   1.387       .  A
C341        C352   1.415       .  A
C342        C350   1.387       .  A
C342        C353   1.416       .  A
C343        C344   1.375       .  A
C343        H355   1.083       .  S
C344        H356   1.082       .  S
C345        C346   1.375       .  A
C345        H357   1.082       .  S
C346        H358   1.083       .  S
C347        C348   1.373       .  A
C347        H359   1.082       .  S
C348        H360   1.083       .  S
C349        C350   1.372       .  A
C349        H361   1.082       .  S
C350        H362   1.082       .  S
C351        C425   1.449       .  S
C352        C438   1.490       .  S
C353        C442   1.488       .  S
C354        C427   1.450       .  S
C365        C838   1.534       .  S
C365        C371   1.529       .  S
C365        C369   1.531       .  S
C365        C426   1.466       .  S
C366        C837   1.535       .  S
C366        H373   1.086       .  S
C367        C840   1.543       .  S
C367        C455   1.445       .  S
C368        C839   1.542       .  S
C368        C372   1.541       .  S
C368        C370   1.545       .  S
C368        H374   1.111       .  S
C369        H375   1.087       .  S
C370        C453   1.446       .  S
C371        H376   1.087       .  S
C372        C428   1.440       .  S
N377        C382   1.354       .  A
N377        C381   1.353       .  A
N377        H409   1.035   1_655  S
N378        C385   1.350   1_655  A
N378        C386   1.350   1_655  A
N379        C384   1.353       .  A
N379        C383   1.356       .  A
N379        H410   1.036       .  S
N380        C387   1.353       .  A
N380        C388   1.354       .  A
C381        C389   1.388       .  A
C381        C397   1.417       .  A
C382        C398   1.418       .  A
C382        C390   1.387       .  A
C383        C391   1.388       .  A
C383        C400   1.418       .  A
C384        C399   1.416       .  A
C384        C392   1.387       .  A
C385        C397   1.411   1_455  A
C385        C393   1.387       .  A
C386        C400   1.410       .  A
C386        C394   1.386       .  A
C387        C867   1.387       .  A
C387        C398   1.417       .  A
C388        C868   1.387       .  A
C388        C399   1.417   1_655  A
C389        C390   1.377       .  A
C389        H401   1.083       .  S
C390        H402   1.082       .  S
C391        C392   1.375       .  A
C391        H403   1.082   1_455  S
C392        H404   1.083   1_455  S
C393        C394   1.373       .  A
C393        H405   1.082       .  S
C394        H406   1.082       .  S
C395        C859   1.387       .  A
C395        C396   1.373       .  A
C395        H407   1.083       .  S
C396        C860   1.386       .  A
C396        H408   1.082       .  S
C397        C465   1.450       .  S
C398        C902   1.489       .  S
C399        C906   1.488       .  S
C400        C468   1.452       .  S
O411       Ni419   1.907       .  S
O411        C421   1.280       .  A
O412       Ni891   1.908       .  S
O412        C422   1.278       .  A
O413       Ni891   1.925       .  S
O413        C423   1.283       .  A
O414       Ni419   1.930       .  S
O414        C424   1.285       .  A
O415       Ni420   1.908       .  S
O416       Ni892   1.908       .  S
O417       Ni892   1.934       .  S
O418       Ni420   1.930       .  S
Ni419       O884   1.906       .  S
Ni419       O885   1.927       .  S
Ni420       O888   1.911       .  S
Ni420       O889   1.932       .  S
C421        C446   1.473       .  S
C422        C458   1.472       .  S
C423        C450   1.469       .  S
C424        C461   1.470       .  S
C425        C426   1.206       .  T
C427        C428   1.206       .  T
C429        H903   1.088       .  S
C429        C430   1.338       .  D
C430        H432   1.086       .  S
C430        C870   1.487       .  S
H431        C901   1.088   1_455  S
C433        H435   1.087       .  S
C433        C434   1.340       .  D
C434        H908   1.086       .  S
C434        C871   1.490       .  S
H436        C906   1.086       .  S
C437        H911   1.087       .  S
C437        C438   1.340       .  D
C438        H440   1.087       .  S
H439        C909   1.087   1_455  S
C441        H443   1.087       .  S
C441        C442   1.340       .  D
C442        H916   1.086       .  S
H444        C914   1.086       .  S
C445        H447   1.086       .  S
C445        C446   1.343       .  D
C446        H448   1.087       .  S
C449        H451   1.086       .  S
C449        C450   1.339       .  D
C453        C454   1.209       .  T
C455        C456   1.208       .  T
C457        C458   1.340       .  D
C458        H460   1.087       .  S
C461        H463   1.088       .  S
C461        C462   1.340       .  D
C462        H464   1.086       .  S
C465        C466   1.205       .  T
C467        C709   1.470       .  S
C467        C468   1.208       .  T
C469        C470   1.208       .  T
C471        C472   1.210       .  T
C473        C474   1.533   1_455  S
C473        C479   1.529   1_455  S
C474        H481   1.087       .  S
C474        C711   1.365       .  D
C475        C476   1.541   1_665  S
C475        C710   1.369       .  D
C475        C707   1.451   1_565  S
C476        H482   1.111       .  S
C477        H483   1.087       .  S
C477        C714   1.362       .  D
C478        C713   1.364       .  D
C478        C705   1.446   1_565  S
C479        H484   1.087       .  S
C480        C702   1.438       .  S
N485        C490   1.356       .  A
N485        C489   1.358       .  A
N485        H517   1.035       .  S
N486        C493   1.352       .  A
N486        C494   1.352       .  A
N487        C492   1.356       .  A
N487        C491   1.356       .  A
N487        H518   1.034       .  S
N488        C495   1.353       .  A
N488        C496   1.354       .  A
C489        C497   1.389       .  A
C489        C505   1.423       .  A
C490        C506   1.420       .  A
C490        C498   1.387       .  A
C491        C499   1.389       .  A
C491        C508   1.421       .  A
C492        C507   1.419   1_545  A
C492        C500   1.387       .  A
C493        C505   1.418       .  A
C493        C501   1.387       .  A
C494        C508   1.418       .  A
C494        C502   1.387       .  A
C495        C503   1.387       .  A
C495        C506   1.419       .  A
C496        C504   1.387       .  A
C496        C507   1.419   1_545  A
C497        C498   1.374       .  A
C497        H509   1.083       .  S
C498        H510   1.083       .  S
C499        C500   1.374       .  A
C499        H511   1.083       .  S
C500        H512   1.083       .  S
C501        C502   1.375       .  A
C501        H513   1.082       .  S
C502        H514   1.082       .  S
C503        C504   1.370       .  A
C503        H515   1.082       .  S
C504        H516   1.082       .  S
C505        C708   1.460       .  S
C506        C698   1.489       .  S
C507        C693   1.491       .  S
C508        C706   1.456       .  S
N519        C524   1.354       .  A
N519        C523   1.354       .  A
N519        H551   1.037       .  S
N520        C527   1.352       .  A
N520        C528   1.352       .  A
N521        C526   1.353       .  A
N521        C525   1.353       .  A
N521        H552   1.038       .  S
N522        C529   1.353       .  A
N522        C530   1.352       .  A
C523        C531   1.388       .  A
C523        C539   1.417       .  A
C524        C540   1.415       .  A
C524        C532   1.387       .  A
C525        C533   1.388       .  A
C525        C542   1.415       .  A
C526        C541   1.414       .  A
C526        C534   1.388       .  A
C527        C539   1.417       .  A
C527        C535   1.388       .  A
C528        C542   1.414       .  A
C528        C536   1.386       .  A
C529        C537   1.387       .  A
C529        C540   1.415       .  A
C530        C538   1.387       .  A
C530        C541   1.415       .  A
C531        C532   1.376       .  A
C531        H543   1.082       .  S
C532        H544   1.083       .  S
C533        C534   1.375       .  A
C533        H545   1.082       .  S
C534        H546   1.083       .  S
C535        C536   1.371       .  A
C535        H547   1.082       .  S
C536        H548   1.082       .  S
C537        C538   1.375       .  A
C537        H549   1.082   1_545  S
C538        H550   1.082   1_545  S
C539        C685   1.488       .  S
C540        C692   1.455       .  S
C541        C690   1.452       .  S
C542        C681   1.484       .  S
O553       Ni797   1.902   1_545  S
O554       Ni561   1.900   1_554  S
O555       Ni561   1.930       .  S
O556       Ni797   1.938   1_544  S
O557       Ni798   1.906   1_545  S
O557        C566   1.277       .  A
O558       Ni562   1.903   1_556  S
O558        C565   1.276       .  A
O559       Ni562   1.940       .  S
O559        C564   1.286       .  A
O560       Ni798   1.941   1_546  S
O560        C563   1.287       .  A
Ni561       O789   1.899       .  S
Ni561       O792   1.932   1_556  S
Ni562       O793   1.902       .  S
Ni562       O796   1.940   1_554  S
C563        C665   1.477       .  S
C564        C673   1.473       .  S
C565        C669   1.473       .  S
C566        C677   1.473       .  S
N567        C572   1.354       .  A
N567        C571   1.352       .  A
N567        H599   1.035   1_655  S
N568        C575   1.349       .  A
N568        C576   1.349       .  A
N569        C574   1.354       .  A
N569        C573   1.356       .  A
N569        H600   1.036       .  S
N570        C577   1.353       .  A
N570        C578   1.353   1_655  A
C571        C579   1.388       .  A
C571        C587   1.415       .  A
C572        C588   1.416       .  A
C572        C580   1.387       .  A
C573        C581   1.389       .  A
C573        C590   1.419       .  A
C574        C589   1.416       .  A
C574        C582   1.386       .  A
C575        C587   1.410   1_455  A
C575        C583   1.388       .  A
C576        C590   1.409       .  A
C576        C584   1.386       .  A
C577        C585   1.387       .  A
C577        C588   1.417       .  A
C578        C586   1.387       .  A
C578        C589   1.417       .  A
C579        C580   1.376       .  A
C579        H591   1.083       .  S
C580        H592   1.082       .  S
C581        C582   1.374       .  A
C581        H593   1.082       .  S
C582        H594   1.082       .  S
C583        C584   1.374       .  A
C583        H595   1.083       .  S
C584        H596   1.082       .  S
C585        C586   1.372   1_655  A
C585        H597   1.082       .  S
C586        H598   1.082       .  S
C587        C661   1.446       .  S
C588        C674   1.487       .  S
C589        C678   1.489       .  S
C590        C663   1.451       .  S
C601        C607   1.528       .  S
C601        C605   1.530   1_455  S
C601        C662   1.463   1_455  S
C602        H609   1.086       .  S
C602        C839   1.367       .  D
C603        C838   1.366       .  D
C603        C691   1.446   1_565  S
C604        C608   1.540       .  S
C604        C606   1.543   1_455  S
C604        H610   1.111       .  S
C605        H611   1.087       .  S
C605        C842   1.363       .  D
C606        C841   1.363   1_545  D
C606        C689   1.442       .  S
C607        H612   1.087       .  S
C607        C844   1.360       .  D
C608        C843   1.361   1_545  D
C608        C664   1.441       .  S
N613        C618   1.354       .  A
N613        C617   1.353       .  A
N613        H645   1.037       .  S
N614        C621   1.350       .  A
N614        C622   1.349       .  A
N615        C620   1.352       .  A
N615        C619   1.354       .  A
N615        H646   1.038       .  S
N616        C623   1.351       .  A
N616        C624   1.352       .  A
C617        C625   1.387       .  A
C617        C633   1.415       .  A
C618        C634   1.417       .  A
C618        C626   1.387       .  A
C619        C627   1.389       .  A
C619        C636   1.415       .  A
C620        C635   1.412       .  A
C620        C628   1.386       .  A
C621        C633   1.409       .  A
C621        C629   1.387       .  A
C622        C636   1.408       .  A
C622        C630   1.386       .  A
C623        C634   1.413       .  A
C624        C635   1.413       .  A
C625        C626   1.377       .  A
C625        H637   1.083       .  S
C626        H638   1.082       .  S
C627        C628   1.375       .  A
C627        H639   1.082       .  S
C628        H640   1.083       .  S
C629        C630   1.373       .  A
C629        H641   1.082       .  S
C630        H642   1.082       .  S
C631        C632   1.374   1_655  A
C631        H643   1.082       .  S
C632        H644   1.082       .  S
C633        C701   1.448       .  S
C636        C704   1.447       .  S
O647       Ni655   1.908   1_655  S
O647        C657   1.279       .  A
O648        C658   1.278       .  A
O649        C659   1.283       .  A
O650       Ni655   1.933   1_655  S
O650        C660   1.285       .  A
O651       Ni656   1.899   1_655  S
O651        C896   1.276       .  A
O652        C895   1.277       .  A
O653        C894   1.283       .  A
O654       Ni656   1.927   1_655  S
O654        C893   1.283       .  A
Ni655      Ni892   2.390   1_545  S
Ni656      Ni891   2.391       .  S
C657        C682   1.477   1_545  S
C657        O890   1.283   1_545  A
C658        C694   1.477       .  S
C658        O889   1.285   1_545  A
C659        C686   1.474       .  S
C659        O888   1.279   1_545  A
C660        C697   1.474       .  S
C660        O887   1.277   1_545  A
C661        C662   1.204       .  T
C663        C664   1.206       .  T
C665        C666   1.340       .  D
C666        H668   1.086       .  S
C669        H671   1.088       .  S
C669        C670   1.338   1_655  D
C673        C674   1.339       .  D
C674        H676   1.086       .  S
C677        H679   1.088       .  S
C677        C678   1.340   1_655  D
C681        H683   1.086       .  S
C681        C682   1.346   1_545  D
C682        H684   1.087       .  S
C685        H687   1.086       .  S
C685        C686   1.342       .  D
C686        H924   1.087   1_545  S
H688        C922   1.088       .  S
C689        C690   1.207       .  T
C691        C692   1.209       .  T
C693        H931   1.086       .  S
C693        C694   1.342   1_565  D
C694        H696   1.087       .  S
H695        C929   1.086       .  S
C697        H699   1.088   1_545  S
C697        C698   1.341       .  D
C698        H700   1.086       .  S
C701        C702   1.204       .  T
C703        C704   1.205       .  T
C705        C706   1.209       .  T
C707        C708   1.212       .  T
C709        C710   1.539   1_455  S
C709        C715   1.528       .  S
C710        H717   1.086       .  S
C711        C712   1.541   1_655  S
C711        C943   1.443       .  S
C712        H718   1.111       .  S
C713        H719   1.087       .  S
C714        C941   1.440       .  S
C715        H720   1.087       .  S
C716        C938   1.440       .  S
N721        C726   1.352       .  A
N721        C725   1.352       .  A
N721        H753   1.036       .  S
N722        C729   1.352       .  A
N722        C730   1.351       .  A
N723        C728   1.352       .  A
N723        C727   1.352       .  A
N723        H754   1.038       .  S
N724        C731   1.350       .  A
N724        C732   1.351       .  A
C725        C733   1.387       .  A
C725        C741   1.413       .  A
C726        C742   1.415       .  A
C726        C734   1.388       .  A
C727        C735   1.389       .  A
C727        C744   1.413       .  A
C728        C743   1.410       .  A
C728        C736   1.386       .  A
C729        C741   1.415       .  A
C729        C737   1.387       .  A
C730        C744   1.413       .  A
C730        C738   1.386       .  A
C731        C739   1.388       .  A
C731        C742   1.415       .  A
C732        C740   1.385       .  A
C732        C743   1.410       .  A
C733        C734   1.376       .  A
C733        H745   1.083       .  S
C734        H746   1.082       .  S
C735        C736   1.374       .  A
C735        H747   1.082       .  S
C736        H748   1.083       .  S
C737        C738   1.375       .  A
C737        H749   1.082       .  S
C738        H750   1.082       .  S
C739        C740   1.371       .  A
C739        H751   1.082       .  S
C740        H752   1.082       .  S
C741        C944   1.452       .  S
C742        C934   1.480       .  S
C743        C929   1.479       .  S
C744        C942   1.449       .  S
N755        C760   1.353       .  A
N755        C759   1.354       .  A
N755        H787   1.036       .  S
N756        C763   1.352       .  A
N756        C764   1.352       .  A
N757        C762   1.354       .  A
N757        C761   1.354       .  A
N757        H788   1.037       .  S
N758        C765   1.354       .  A
N758        C766   1.354       .  A
C759        C767   1.388       .  A
C759        C775   1.417       .  A
C760        C776   1.416       .  A
C760        C768   1.388       .  A
C761        C769   1.388       .  A
C761        C778   1.416       .  A
C762        C777   1.416       .  A
C762        C770   1.388       .  A
C763        C775   1.417       .  A
C763        C771   1.388       .  A
C764        C778   1.414       .  A
C764        C772   1.386       .  A
C765        C773   1.387       .  A
C765        C776   1.418       .  A
C766        C774   1.387       .  A
C766        C777   1.417       .  A
C767        C768   1.376       .  A
C767        H779   1.082       .  S
C768        H780   1.083       .  S
C769        C770   1.375       .  A
C769        H781   1.082       .  S
C770        H782   1.083       .  S
C771        C772   1.371       .  A
C771        H783   1.082       .  S
C772        H784   1.082       .  S
C773        C774   1.376       .  A
C773        H785   1.082       .  S
C774        H786   1.082       .  S
C775        C921   1.486       .  S
C776        C928   1.457       .  S
C777        C926   1.456       .  S
C778        C917   1.484       .  S
O790       Ni797   1.902   1_554  S
O791       Ni797   1.937       .  S
O793        C802   1.276       .  A
O794       Ni798   1.902   1_556  S
O794        C801   1.276       .  A
O795       Ni798   1.941       .  S
O795        C800   1.286       .  A
O796        C799   1.286       .  A
C799        C901   1.475       .  S
C800        C909   1.474       .  S
C801        C905   1.474       .  S
C802        C913   1.473       .  S
N803        C808   1.355       .  A
N803        C807   1.353       .  A
N803        H835   1.036   1_655  S
N804        C811   1.350       .  A
N804        C812   1.351       .  A
N805        C810   1.354       .  A
N805        C809   1.356       .  A
N805        H836   1.036       .  S
N806        C813   1.354       .  A
N806        C814   1.354   1_655  A
C807        C815   1.387       .  A
C807        C823   1.415       .  A
C808        C824   1.420       .  A
C808        C816   1.388       .  A
C809        C817   1.389       .  A
C809        C826   1.420       .  A
C810        C825   1.417       .  A
C810        C818   1.387       .  A
C811        C823   1.411   1_455  A
C811        C819   1.388       .  A
C812        C826   1.410       .  A
C812        C820   1.386       .  A
C813        C821   1.386       .  A
C813        C824   1.417       .  A
C814        C822   1.387       .  A
C814        C825   1.419       .  A
C815        C816   1.375       .  A
C815        H827   1.083       .  S
C816        H828   1.082       .  S
C817        C818   1.375       .  A
C817        H829   1.082   1_455  S
C818        H830   1.082       .  S
C819        C820   1.373       .  A
C819        H831   1.082       .  S
C820        H832   1.082       .  S
C821        C822   1.373   1_655  A
C821        H833   1.082       .  S
C822        H834   1.082       .  S
C823        C897   1.448       .  S
C824        C910   1.496       .  S
C825        C914   1.491       .  S
C826        C899   1.454       .  S
C837        C843   1.528       .  S
C837        C841   1.530   1_455  S
C837        C898   1.465   1_455  S
C838        H845   1.087       .  S
C839        C927   1.448       .  S
C840        C844   1.543       .  S
C840        C842   1.545   1_455  S
C840        H846   1.111       .  S
C841        H847   1.087       .  S
C842        C925   1.447       .  S
C843        H848   1.087       .  S
C844        C900   1.443       .  S
N849        C854   1.354       .  A
N849        C853   1.354       .  A
N849        H881   1.035       .  S
N850        C857   1.351       .  A
N850        C858   1.350       .  A
N851        C856   1.353       .  A
N851        C855   1.355       .  A
N851        H882   1.035       .  S
N852        C859   1.352       .  A
N852        C860   1.354       .  A
C853        C861   1.387       .  A
C853        C869   1.416       .  A
C854        C870   1.419       .  A
C854        C862   1.388       .  A
C855        C863   1.389       .  A
C855        C872   1.419       .  A
C856        C871   1.416       .  A
C856        C864   1.386       .  A
C857        C869   1.411       .  A
C857        C865   1.387       .  A
C858        C872   1.410       .  A
C858        C866   1.387       .  A
C859        C870   1.416       .  A
C860        C871   1.417       .  A
C861        C862   1.376       .  A
C861        H873   1.083       .  S
C862        H874   1.082       .  S
C863        C864   1.375       .  A
C863        H875   1.082       .  S
C864        H876   1.083       .  S
C865        C866   1.373       .  A
C865        H877   1.082       .  S
C866        H878   1.082       .  S
C867        C868   1.373       .  A
C867        H879   1.083       .  S
C868        H880   1.082   1_655  S
C869        C937   1.450       .  S
C872        C940   1.450       .  S
O883       Ni891   1.908   1_655  S
O883        C893   1.280       .  A
O884        C894   1.277       .  A
O885        C895   1.284       .  A
O886       Ni891   1.926   1_655  S
O886        C896   1.284       .  A
O887       Ni892   1.905   1_655  S
O890       Ni892   1.930   1_655  S
C893        C918   1.475       .  S
C894        C930   1.469       .  S
C895        C922   1.471       .  S
C896        C933   1.466       .  S
C897        C898   1.205       .  T
C899        C900   1.208       .  T
C901        C902   1.339       .  D
C902        H904   1.086       .  S
C905        H907   1.088       .  S
C905        C906   1.339   1_655  D
C909        C910   1.342       .  D
C910        H912   1.087       .  S
C913        H915   1.088       .  S
C913        C914   1.340   1_655  D
C917        H919   1.087       .  S
C917        C918   1.345       .  D
C918        H920   1.087       .  S
C921        H923   1.086       .  S
C921        C922   1.340       .  D
C925        C926   1.210       .  T
C927        C928   1.210       .  T
C929        C930   1.338       .  D
C930        H932   1.087       .  S
C933        H935   1.088       .  S
C933        C934   1.338       .  D
C934        H936   1.086       .  S
C937        C938   1.206       .  T
C939        C940   1.206       .  T
C941        C942   1.206       .  T
C943        C944   1.207       .  T
