geometry optimzed in LAMMPS
_audit_creation_date              2020-11-30 
_audit_creation_method            'lammps2cif' 
_symmetry_space_group_name_H-M    'P1' 
_symmetry_Int_Tables_number       1 
_symmetry_cell_setting            triclinic 
loop_ 
_symmetry_equiv_pos_as_xyz 
  x,y,z 
_cell_length_a                    29.80291772 
_cell_length_b                    28.462162840468547 
_cell_length_c                    34.58307274872681 
_cell_angle_alpha                 89.19444799723294 
_cell_angle_beta                  87.60223345997437 
_cell_angle_gamma                 119.5126003753605 
loop_ 
_atom_site_label 
_atom_site_type_symbol 
_atom_site_fract_x 
_atom_site_fract_y 
_atom_site_fract_z 
_atom_site_charge 
C1          C  0.73730022  0.14596669  0.22822118     0.04000
C2          C  0.75704872  0.19853028  0.24425359    -0.12100
C3          C  0.79702779  0.21314534  0.02264688     0.01500
C4          C  0.81835431  0.17983004  0.02739152    -0.10700
C5          C  0.79864034  0.12859885  0.01225689     0.04000
C6          C  0.76618369  0.11906998  0.23139579    -0.10100
H7          H  0.73566441  0.22001568  0.24237605     0.09600
H8          H  0.85148468  0.19456006  0.04479478     0.07100
H9          H  0.75280047  0.08066975  0.21799477     0.07000
C10         C  0.21665805  0.45155432  0.21315384     0.04000
C11         C  0.19219158  0.44648160  0.24951139    -0.12100
C12         C  0.21307624  0.40172749  0.04356724     0.01500
C13         C  0.25753906  0.39758976  0.03502010    -0.10700
C14         C  0.29069255  0.42359275  0.00253388     0.04000
C15         C  0.27170784  0.44280205  0.97229823    -0.10100
H16         H  0.15913032  0.45227634  0.25136017     0.09600
H17         H  0.26755549  0.37403815  0.05378510     0.07100
H18         H  0.29349274  0.45749764  0.94481854     0.07000
C19         C  0.49295138  0.17717581  0.01746184     0.04000
C20         C  0.51901395  0.22612453  0.24119614    -0.12100
C21         C  0.49556066  0.25849620  0.23182113     0.01500
C22         C  0.44630911  0.24169562  0.24905035    -0.10700
C23         C  0.42321458  0.19699399  0.02884737     0.04000
C24         C  0.44727269  0.16740281  0.03773979    -0.10100
H25         H  0.55632634  0.23585733  0.22817435     0.09600
H26         H  0.42459923  0.26100061  0.24023792     0.07100
H27         H  0.42860153  0.13422251  0.05914360     0.07000
C28         C  0.26994787  0.79883041  0.21943361     0.04000
C29         C  0.24535083  0.74955590  0.24275636    -0.12100
C30         C  0.17651077  0.72064409  0.99343784     0.01500
C31         C  0.15049553  0.74655941  0.97900615    -0.10700
C32         C  0.17763454  0.79607987  0.95869986     0.04000
C33         C  0.23756303  0.81731642  0.20562029    -0.10100
H34         H  0.26728406  0.73260911  0.25482705     0.09600
H35         H  0.10953464  0.73028986  0.98539880     0.07100
H36         H  0.25331602  0.85121707  0.18514739     0.07000
C37         C  0.84569254  0.52619375  0.22120122     0.04000
C38         C  0.80270175  0.50809847  0.96764525    -0.12100
C39         C  0.77759032  0.53678002  0.98245339     0.01500
C40         C  0.80512455  0.59334936  0.98044473    -0.10700
C41         C  0.85485443  0.62146603  0.96339028     0.04000
C42         C  0.87302391  0.58185492  0.22676413    -0.10100
H43         H  0.78266380  0.46439687  0.96960481     0.09600
H44         H  0.78761033  0.61595951  0.99238561     0.07100
H45         H  0.91214355  0.60637521  0.21448930     0.07000
C46         C  0.56118916  0.77474950  0.98914679     0.04000
C47         C  0.55849798  0.73372080  0.22539894    -0.12100
C48         C  0.58882915  0.72614138  0.19474059     0.01500
C49         C  0.63583108  0.77211815  0.18225305    -0.10700
C50         C  0.65559392  0.81906379  0.20313145     0.04000
C51         C  0.60428542  0.81757762  0.97031973    -0.10100
H52         H  0.52386108  0.69950783  0.23818750     0.09600
H53         H  0.66071364  0.77028125  0.15947862     0.07100
H54         H  0.62020294  0.85760996  0.98194586     0.07000
O55         O  0.08951507  0.99599903  0.05247122    -0.87500
C56         C  0.10765206  0.14563785  0.28934889     0.88600
Mg57       Mg  0.05586573  0.93942039  0.00803893     1.58100
O58         O  0.02526095  0.06151846  0.11655720    -0.87200
O59         O  0.09967135  0.01406358  0.11401380    -0.74500
C60         C  0.84178762  0.90825240  0.28378861     0.93600
O61         O  0.10090765  0.04278526  0.24401283    -0.74300
O62         O  0.87160743  0.89119359  0.27253397    -0.81800
Mg63       Mg  0.15365003  0.07376160  0.29523197     1.58000
C64         C  0.87827510  0.03703561  0.11807416     0.93500
O65         O  0.19167914  0.07792599  0.07977219    -0.80100
H66         H  0.01809300  0.01864641  0.16463337    -0.05400
C67         C  0.95609321  0.04954780  0.28137940     0.88500
O68         O  0.98429592  0.88912930  0.04834557    -0.74600
O69         O  0.11489702  0.11750307  0.31304967    -0.87400
O70         O  0.92217437  0.06727296  0.13205285    -0.80200
C71         C  0.09652845  0.23635995  0.36277634     0.93700
C72         C  0.21849289  0.12543262  0.09055295     0.93500
Mg73       Mg  0.90303251  0.96025727  0.08081653     1.58000
O74         O  0.85260520  0.94214294  0.31034036    -0.80100
O75         O  0.95972813  0.97953467  0.12885755    -0.74400
O76         O  0.12657761  0.21660563  0.36072082    -0.80200
O77         O  0.19440263  0.02449471  0.27786948    -0.81900
O78         O  0.94255517  0.87460355  0.97113226    -0.80200
C79         C  0.00149161  0.02046567  0.13792199     0.87900
O80         O  0.94513535  0.93634261  0.04382170    -0.87400
O81         O  0.96178642  0.04869076  0.31648043    -0.87500
O82         O  0.95447585  0.01291841  0.26016388    -0.74500
Mg83       Mg  0.10784624  0.10034063  0.11551899     1.58000
O84         O  0.04783691  0.20671733  0.36842442    -0.81900
H85         H  0.08818303  0.94304537  0.09204674    -0.05600
O86         O  0.03302229  0.97549143  0.27385722    -0.87200
H87         H  0.03591376  0.99166491  0.21722795    -0.05500
H88         H  0.91457858  0.86700752  0.07539945    -0.05600
C89         C  0.05539508  0.00279809  0.24395900     0.87900
C90         C  0.09188941  0.98225844  0.08618909     0.88500
C91         C  0.94621591  0.89614308  0.05645155     0.88600
H92         H  0.95402744  0.08306011  0.26825941    -0.05600
O93         O  0.06942107  0.15357773  0.29384854    -0.74600
Mg94       Mg  0.95437718  0.93424632  0.27422390     1.58000
H95         H  0.13412765  0.16382457  0.26435316    -0.05600
C96         C  0.16747929  0.98082294  0.26087139     0.93500
O97         O  0.01877813  0.87972941  0.96201463    -0.81900
C98         C  0.96992968  0.85317483  0.96232110     0.93600
O99         O  0.19706568  0.14592345  0.11124128    -0.81800
Mg100      Mg  0.00295116  0.12571127  0.34086827     1.58200
O101        O  0.12048300  0.96387802  0.25723930    -0.80200
O102        O  0.85966338  0.98670813  0.12282929    -0.81900
C103        C  0.05323453  0.44686067  0.11564290     0.87400
C104        C  0.07506632  0.48783438  0.08177387    -0.52900
C105        C  0.04286887  0.50264129  0.06583917     0.10300
C106        C  0.98533293  0.46624178  0.08191414     0.21200
C107        C  0.02268792  0.46550604  0.14260948    -0.53600
C108        C  0.98552311  0.47377670  0.12612244     0.10400
C109        C  0.00968532  0.39717536  0.09617512    -0.53100
C110        C  0.97314776  0.40617659  0.07906608     0.11000
H111        H  0.11544531  0.50648629  0.07210624     0.15500
H112        H  0.95793611  0.47541542  0.06737847     0.01200
H113        H  0.02925364  0.46933275  0.17300521     0.15800
H114        H  0.00673920  0.35783841  0.09561334     0.15600
C115        C  0.53145769  0.92295357  0.08852892     0.87400
C116        C  0.48494331  0.89532627  0.11648693    -0.52900
C117        C  0.47490768  0.92680454  0.14022063     0.10300
C118        C  0.51344389  0.98859413  0.13137099     0.21200
C119        C  0.52104674  0.96339446  0.06512514    -0.53600
C120        C  0.51210872  0.99900524  0.08696815     0.10400
C121        C  0.57704224  0.96192193  0.11332953    -0.53100
C122        C  0.56832234  0.99674571  0.13517292     0.11000
H123        H  0.45920278  0.85215199  0.11558408     0.15500
H124        H  0.50555057  0.01449255  0.15066145     0.01200
H125        H  0.52338343  0.96549164  0.03382785     0.15800
H126        H  0.61497614  0.96566790  0.11178628     0.15600
C127        C  0.48441989  0.45643411  0.06637073     0.87400
C128        C  0.49559150  0.50361075  0.09211110    -0.52900
C129        C  0.53674421  0.52131784  0.11459666     0.10300
C130        C  0.56548155  0.48751368  0.10869813     0.21200
C131        C  0.53606858  0.47415723  0.04338787    -0.53600
C132        C  0.57957324  0.49016023  0.06419211     0.10400
C133        C  0.48043542  0.41251167  0.09609861    -0.53100
C134        C  0.52369117  0.42723042  0.11673660     0.11000
H135        H  0.47246801  0.52318576  0.09127490     0.15500
H136        H  0.59780929  0.50042958  0.12781108     0.01200
H137        H  0.53640554  0.46854450  0.01282652     0.15800
H138        H  0.44643595  0.37363604  0.10202089     0.15600
C139        C  0.70715234  0.84064079  0.21878143    -0.04500
C140        C  0.74385244  0.89599078  0.21331259    -0.01600
C141        C  0.78809729  0.91874518  0.23505710     0.03400
C142        C  0.79355089  0.88723487  0.26433331    -0.04500
C143        C  0.75372571  0.83940770  0.99435001    -0.01600
C144        C  0.70619096  0.81034825  0.97777394     0.03400
C145        C  0.73424969  0.93038482  0.18763820     0.38100
C146        C  0.77169570  0.81185505  0.01995833     0.38100
C147        C  0.67277292  0.75456500  0.99135363     0.36500
C148        C  0.82864153  0.97398903  0.22653478     0.36500
N149        N  0.64685772  0.71052278  0.00318366    -0.38300
N150        N  0.86103298  0.01791970  0.21935423    -0.38300
N151        N  0.78613628  0.79001559  0.04022334    -0.37800
N152        N  0.72625284  0.95870621  0.16835103    -0.37800
C153        C  0.53552423  0.87646395  0.06624325    -0.04500
C154        C  0.49540102  0.84059004  0.04210869    -0.01600
C155        C  0.49795718  0.79751288  0.02320391     0.03400
C156        C  0.54179388  0.79167115  0.02468626    -0.04500
C157        C  0.57615334  0.81952609  0.05383873    -0.01600
C158        C  0.57067930  0.85815194  0.07625321     0.03400
C159        C  0.44873178  0.84385715  0.03922528     0.38100
C160        C  0.61670212  0.80711327  0.06161341     0.38100
C161        C  0.59490800  0.87062683  0.11293779     0.36500
C162        C  0.46336692  0.75923803  0.25516159     0.36500
N163        N  0.61345838  0.87911550  0.14259878    -0.38300
N164        N  0.42878769  0.72181350  0.24307782    -0.38300
N165        N  0.64905361  0.79756262  0.06864434    -0.37800
N166        N  0.41008700  0.84394663  0.03774320    -0.37800
C167        C  0.57564480  0.67131730  0.17734923    -0.04500
C168        C  0.61456979  0.65775200  0.16530707    -0.01600
C169        C  0.60233162  0.61079341  0.14390458     0.03400
C170        C  0.55053795  0.57050753  0.13978210    -0.04500
C171        C  0.51151660  0.58117749  0.15607706    -0.01600
C172        C  0.52415503  0.63271702  0.17030702     0.03400
C173        C  0.66778802  0.68994109  0.17559398     0.38100
C174        C  0.45756029  0.53950207  0.15875034     0.38100
C175        C  0.48432807  0.64783587  0.17342963     0.36500
C176        C  0.64396174  0.60613189  0.12447215     0.36500
N177        N  0.45317118  0.66088424  0.17466867    -0.38300
N178        N  0.67761111  0.60346496  0.10868985    -0.38300
N179        N  0.41447344  0.50640475  0.16042878    -0.37800
N180        N  0.69308232  0.70663952  0.91777228    -0.37800
C181        C  0.88383725  0.68091786  0.96267098    -0.04500
C182        C  0.92538714  0.70732417  0.98681868    -0.01600
C183        C  0.95698534  0.76358134  0.98329374     0.03400
C184        C  0.94365925  0.79429107  0.95857038    -0.04500
C185        C  0.89948511  0.76795402  0.93660303    -0.01600
C186        C  0.87087623  0.71118608  0.93749064     0.03400
C187        C  0.89557356  0.63841580  0.32321088     0.38100
C188        C  0.88202288  0.79880023  0.91425571     0.38100
C189        C  0.82748880  0.68402480  0.91311722     0.36500
C190        C  0.96242476  0.75014552  0.33725795     0.36500
N191        N  0.79297376  0.66276731  0.89355117    -0.38300
N192        N  0.98038190  0.76273928  0.36699322    -0.38300
N193        N  0.86655267  0.82245494  0.89702117    -0.37800
N194        N  0.88640245  0.60591422  0.34737666    -0.37800
C195        C  0.72316094  0.51221758  0.00101983    -0.04500
C196        C  0.71314413  0.49572960  0.04059930    -0.01600
C197        C  0.66797528  0.48934759  0.06182519     0.03400
C198        C  0.63173602  0.50101514  0.04400316    -0.04500
C199        C  0.64463600  0.52095931  0.00460576    -0.01600
C200        C  0.68699307  0.52243253  0.98302543     0.03400
C201        C  0.75126810  0.48770461  0.05983929     0.38100
C202        C  0.61862799  0.54668367  0.98694920     0.38100
C203        C  0.71052003  0.56530394  0.20980394     0.36500
C204        C  0.66195311  0.47365619  0.10248148     0.36500
N205        N  0.72986849  0.59169113  0.18183432    -0.38400
N206        N  0.65931598  0.46173117  0.13498987    -0.38300
N207        N  0.59796855  0.56745855  0.97303526    -0.37800
N208        N  0.78248982  0.48183229  0.07441343    -0.37800
C209        C  0.94737312  0.48519282  0.15009827    -0.04500
C210        C  0.89324419  0.45993259  0.14414204    -0.01600
C211        C  0.85904891  0.46999842  0.16848386     0.03400
C212        C  0.87705626  0.50336084  0.20055928    -0.04500
C213        C  0.93026036  0.52472644  0.20809441    -0.01600
C214        C  0.96521911  0.52095093  0.18095594     0.03400
C215        C  0.87110112  0.42534955  0.11212974     0.38100
C216        C  0.95100874  0.55935780  0.98357950     0.38100
C217        C  0.02016684  0.55741719  0.18343845     0.36500
C218        C  0.80511221  0.44613526  0.15993969     0.36500
N219        N  0.07321211  0.59532483  0.93552547    -0.38300
N220        N  0.76195274  0.42651946  0.15329499    -0.38300
N221        N  0.96136124  0.57845428  0.01340108    -0.37800
N222        N  0.84939193  0.39831635  0.08707512    -0.37800
C223        C  0.17185872  0.84043760  0.22963758    -0.04500
C224        C  0.17751560  0.86492565  0.00185828    -0.01600
C225        C  0.18015062  0.91526021  0.00640801     0.03400
C226        C  0.18407182  0.94161813  0.25150365    -0.04500
C227        C  0.19013504  0.93232019  0.21217228    -0.01600
C228        C  0.18332111  0.88171864  0.20126349     0.03400
C229        C  0.19389369  0.84263652  0.03271653     0.38100
C230        C  0.20033073  0.97385444  0.18280506     0.38100
C231        C  0.18315557  0.87006534  0.16065923     0.36500
C232        C  0.19176307  0.94038363  0.04360946     0.36500
N233        N  0.18219578  0.86036098  0.12826738    -0.38300
N234        N  0.20173325  0.96085517  0.07309648    -0.38300
N235        N  0.20829334  0.00698707  0.15945622    -0.37800
N236        N  0.20839701  0.82508241  0.05641412    -0.37800
C237        C  0.14348754  0.66508767  0.01399145    -0.04500
C238        C  0.14688957  0.61974170  0.00169439    -0.01600
C239        C  0.10889974  0.56634748  0.01410814     0.03400
C240        C  0.06882405  0.55627722  0.04233578    -0.04500
C241        C  0.06564991  0.60154013  0.05525238    -0.01600
C242        C  0.10244377  0.65502873  0.04156398     0.03400
C243        C  0.18374633  0.62742958  0.21589167     0.38100
C244        C  0.02435708  0.59403732  0.08258583     0.38100
C245        C  0.09905927  0.69988727  0.05796012     0.36500
C246        C  0.11138517  0.52074342  0.99847673     0.36500
N247        N  0.09516830  0.73481408  0.07137770    -0.38300
N248        N  0.09581087  0.48381308  0.22477854    -0.38300
N249        N  0.99115909  0.59043400  0.10321789    -0.37800
N250        N  0.21329365  0.63639391  0.19023319    -0.37800
C251        C  0.32803795  0.83416681  0.20860686    -0.04500
C252        C  0.36159497  0.81282551  0.20148274    -0.01600
C253        C  0.41290211  0.84678144  0.18587921     0.03400
C254        C  0.42842560  0.89927348  0.16929798    -0.04500
C255        C  0.39549271  0.92070417  0.17703153    -0.01600
C256        C  0.34970563  0.89115574  0.20086653     0.03400
C257        C  0.34367526  0.75577023  0.20772851     0.38100
C258        C  0.40465640  0.96993495  0.15704880     0.38100
C259        C  0.31351889  0.92057525  0.96714999     0.36500
C260        C  0.44885432  0.82621195  0.18449218     0.36500
N261        N  0.29579634  0.94463340  0.98149478    -0.38300
N262        N  0.47865133  0.81149767  0.18065246    -0.38300
N263        N  0.41105614  0.00827734  0.14007196    -0.37800
N264        N  0.32993469  0.71020454  0.21225848    -0.37800
C265        C  0.37117636  0.18121476  0.04571412    -0.04500
C266        C  0.33172548  0.17189443  0.27447031    -0.01600
C267        C  0.28679058  0.17067407  0.28922663     0.03400
C268        C  0.27239645  0.15643087  0.07508787    -0.04500
C269        C  0.31339570  0.17612818  0.09988734    -0.01600
C270        C  0.36297008  0.18819875  0.08527778     0.03400
C271        C  0.33259808  0.14909751  0.23731407     0.38100
C272        C  0.30493238  0.18720869  0.13939344     0.38100
C273        C  0.40516004  0.20757941  0.11081087     0.36500
C274        C  0.24606507  0.16000128  0.26338791     0.36500
N275        N  0.43854411  0.22252990  0.13151614    -0.38300
N276        N  0.21501302  0.15255474  0.24159764    -0.38300
N277        N  0.29784329  0.19780276  0.17038687    -0.37800
N278        N  0.33385282  0.12957009  0.20845321    -0.37800
C279        C  0.50843093  0.04646754  0.06818053    -0.04500
C280        C  0.48063871  0.03914409  0.03423097    -0.01600
C281        C  0.48080261  0.08343705  0.01445244     0.03400
C282        C  0.51030543  0.13676876  0.02676193    -0.04500
C283        C  0.54004168  0.14472669  0.05900254    -0.01600
C284        C  0.53444022  0.10010133  0.08199430     0.03400
C285        C  0.44517039  0.98515903  0.02292380     0.38100
C286        C  0.57675908  0.19959282  0.06818532     0.38100
C287        C  0.54856664  0.11024329  0.12173306     0.36500
C288        C  0.44732326  0.07427255  0.98290454     0.36500
N289        N  0.55846662  0.12006859  0.15368757    -0.38300
N290        N  0.42050080  0.06889984  0.95815300    -0.38300
N291        N  0.60737269  0.24365781  0.07390088    -0.37800
N292        N  0.41574759  0.94214946  0.01422291    -0.37800
C293        C  0.51732330  0.30904085  0.20428785    -0.04500
C294        C  0.53803419  0.31116314  0.16639675    -0.01600
C295        C  0.54368753  0.35137762  0.13813817     0.03400
C296        C  0.52675792  0.38929138  0.14692381    -0.04500
C297        C  0.51010841  0.38966189  0.18541453    -0.01600
C298        C  0.50835512  0.35242995  0.21387681     0.03400
C299        C  0.55149502  0.27045237  0.15616832     0.38100
C300        C  0.49132787  0.42645962  0.19519532     0.38100
C301        C  0.51109051  0.35728299  0.00310463     0.36500
C302        C  0.56788961  0.35337952  0.10060217     0.36500
N303        N  0.50946626  0.36149851  0.03611565    -0.38300
N304        N  0.58891612  0.35403463  0.07151701    -0.38300
N305        N  0.48401619  0.45580402  0.95566516    -0.37800
N306        N  0.56160344  0.23698692  0.14939168    -0.37800
C307        C  0.16619699  0.39702316  0.31473516    -0.04500
C308        C  0.11532803  0.35866895  0.30603790    -0.01600
C309        C  0.09447312  0.30574124  0.32064583     0.03400
C310        C  0.11730104  0.29377312  0.35132419    -0.04500
C311        C  0.16465868  0.29963750  0.12669040    -0.01600
C312        C  0.19489876  0.35163274  0.10886502     0.03400
C313        C  0.08466240  0.37074621  0.28057957     0.38100
C314        C  0.18713279  0.27981224  0.15459010     0.38100
C315        C  0.24697988  0.38582619  0.12081800     0.36500
C316        C  0.05808506  0.26286847  0.29756716     0.36500
N317        N  0.28952504  0.41175852  0.12865462    -0.38300
N318        N  0.03155489  0.22883025  0.27792110    -0.38300
N319        N  0.20528217  0.26378383  0.17644135    -0.37800
N320        N  0.05805142  0.37799557  0.26086709    -0.37800
C321        C  0.34501077  0.43152399  0.00459479    -0.04500
C322        C  0.38714579  0.48328364  0.00992402    -0.01600
C323        C  0.43461671  0.48985720  0.02273818     0.03400
C324        C  0.43783196  0.44525949  0.03973007    -0.04500
C325        C  0.39629490  0.39294320  0.03174773    -0.01600
C326        C  0.35229633  0.38679147  0.01238467     0.03400
C327        C  0.37980503  0.52981381  0.00655645     0.38100
C328        C  0.39736420  0.34433014  0.04224393     0.38100
C329        C  0.31275870  0.33357104  0.00184760     0.36500
C330        C  0.47963599  0.54343127  0.01885386     0.36500
N331        N  0.28141850  0.29120642  0.99321420    -0.38300
N332        N  0.51524397  0.58635994  0.01599116    -0.38300
N333        N  0.39575228  0.30403903  0.05062004    -0.37800
N334        N  0.37267106  0.56622329  0.00511366    -0.37800
C335        C  0.09915695  0.44515413  0.13709375    -0.04500
C336        C  0.14657837  0.49455491  0.14329847    -0.01600
C337        C  0.18878051  0.49477707  0.16163885     0.03400
C338        C  0.18373157  0.44765573  0.17936075    -0.04500
C339        C  0.13668879  0.39885478  0.17503535    -0.01600
C340        C  0.09550377  0.39723823  0.15407328     0.03400
C341        C  0.15153545  0.54677667  0.13375805     0.38100
C342        C  0.12901168  0.35013798  0.19522724     0.38100
C343        C  0.04791606  0.34624614  0.15435588     0.36500
C344        C  0.25191695  0.54082232  0.93383889     0.36500
N345        N  0.01094088  0.30432786  0.15557599    -0.38300
N346        N  0.29222636  0.57773128  0.93777173    -0.38300
N347        N  0.12266976  0.31151627  0.21174620    -0.37800
N348        N  0.15488367  0.58782800  0.12494006    -0.37800
C349        C  0.82182597  0.09474293  0.02525066    -0.04500
C350        C  0.79082790  0.04128258  0.04070863    -0.01600
C351        C  0.80948624  0.02135087  0.07009680     0.03400
C352        C  0.85746658  0.05642959  0.08658804    -0.04500
C353        C  0.88679161  0.10932749  0.07061125    -0.01600
C354        C  0.87380918  0.12257387  0.03519045     0.03400
C355        C  0.75441254  0.01792025  0.27093239     0.38100
C356        C  0.92143516  0.15237349  0.09426418     0.38100
C357        C  0.91157319  0.16854143  0.01120802     0.36500
C358        C  0.77710216  0.96569798  0.08423648     0.36500
N359        N  0.94057261  0.20480677  0.99125567    -0.38300
N360        N  0.76310678  0.94393208  0.34739768    -0.38300
N361        N  0.94640619  0.18632668  0.11464847    -0.37800
N362        N  0.71550068  0.98529128  0.25990583    -0.37800
C363        C  0.92205861  0.35964761  0.06599923    -0.04500
C364        C  0.89048335  0.31494110  0.09163759    -0.01600
C365        C  0.84457457  0.27004572  0.07942718     0.03400
C366        C  0.82801725  0.26824545  0.04096684    -0.04500
C367        C  0.85559120  0.31606267  0.01740020    -0.01600
C368        C  0.90283523  0.36046600  0.02925993     0.03400
C369        C  0.90508182  0.31481640  0.13110219     0.38100
C370        C  0.84454248  0.32931143  0.22377056     0.38100
C371        C  0.93295927  0.40648225  0.00319578     0.36500
C372        C  0.81792118  0.22259273  0.10538173     0.36500
N373        N  0.97430284  0.44700473  0.23169083    -0.38300
N374        N  0.79874209  0.18418673  0.12557891    -0.38300
N375        N  0.83038744  0.33389624  0.19403809    -0.37800
N376        N  0.91677035  0.31470667  0.16257046    -0.37800
C377        C  0.68625899  0.11470763  0.20881905    -0.04500
C378        C  0.64979547  0.06147907  0.22275760    -0.01600
C379        C  0.61136044  0.02436177  0.19894730     0.03400
C380        C  0.60876613  0.03857565  0.16026393    -0.04500
C381        C  0.64458086  0.09217289  0.14646729    -0.01600
C382        C  0.67975183  0.13082676  0.17167660     0.03400
C383        C  0.64383172  0.03600891  0.01613712     0.38100
C384        C  0.64732509  0.10798206  0.10611791     0.38100
C385        C  0.70749181  0.18763505  0.16008014     0.36500
C386        C  0.57643443  0.96967007  0.21318720     0.36500
N387        N  0.72849057  0.23320174  0.15126689    -0.38300
N388        N  0.54476341  0.91822439  0.97353360    -0.38300
N389        N  0.65073301  0.12261798  0.07419100    -0.37800
N390        N  0.64681031  0.02167750  0.04682199    -0.37800
C391        C  0.73700259  0.14888181  0.47465731     0.04000
C392        C  0.75699222  0.20003310  0.49252422    -0.12100
C393        C  0.80434993  0.22171815  0.26377093     0.01500
C394        C  0.82942067  0.19173447  0.26676557    -0.10700
C395        C  0.81051995  0.14001222  0.25259153     0.04000
C396        C  0.76534287  0.12124890  0.47569960    -0.10100
H397        H  0.73518729  0.22120871  0.49312362     0.09600
H398        H  0.86364853  0.20872448  0.28320990     0.07100
H399        H  0.75071717  0.08295427  0.46188277     0.07000
C400        C  0.20629118  0.44503316  0.47047603     0.04000
C401        C  0.18505186  0.44128355  0.50802996    -0.12100
C402        C  0.20511995  0.42669535  0.28171204     0.01500
C403        C  0.25140516  0.42455010  0.27909570    -0.10700
C404        C  0.28463917  0.44184631  0.24594508     0.04000
C405        C  0.26600021  0.45379509  0.21160973    -0.10100
H406        H  0.15282368  0.44824956  0.51174326     0.09600
H407        H  0.26194245  0.40766450  0.30287293     0.07100
H408        H  0.28891297  0.46417869  0.18473270     0.07000
C409        C  0.49291107  0.18043371  0.26820496     0.04000
C410        C  0.52888129  0.24237805  0.49034601    -0.12100
C411        C  0.49874690  0.26692446  0.47941609     0.01500
C412        C  0.44776116  0.24294905  0.49505403    -0.10700
C413        C  0.42439969  0.20194420  0.27854907     0.04000
C414        C  0.44719379  0.17137475  0.28780463    -0.10100
H415        H  0.56750725  0.25725295  0.47768425     0.09600
H416        H  0.42233778  0.25723442  0.48521253     0.07100
H417        H  0.42782725  0.13849050  0.30937687     0.07000
C418        C  0.27303672  0.78890998  0.47455805     0.04000
C419        C  0.24785307  0.73904517  0.49734134    -0.12100
C420        C  0.19074170  0.72200694  0.25104584     0.01500
C421        C  0.16305216  0.74792825  0.24091678    -0.10700
C422        C  0.18799432  0.79892786  0.22222556     0.04000
C423        C  0.24149237  0.80772220  0.45998044    -0.10100
H424        H  0.27019637  0.72246511  0.50944386     0.09600
H425        H  0.12219620  0.72907110  0.24898082     0.07100
H426        H  0.25944626  0.84390980  0.44174662     0.07000
C427        C  0.82692027  0.51444928  0.45994811     0.04000
C428        C  0.79153689  0.49786812  0.23362826    -0.12100
C429        C  0.76831497  0.52625350  0.25219677     0.01500
C430        C  0.80059489  0.57991951  0.26166645    -0.10700
C431        C  0.85219329  0.60725968  0.24887628     0.04000
C432        C  0.85756904  0.56875293  0.46843657    -0.10100
H433        H  0.76783359  0.45527217  0.22891127     0.09600
H434        H  0.78479052  0.60164719  0.27745822     0.07100
H435        H  0.89811543  0.59040053  0.45876279     0.07000
C436        C  0.57532436  0.78630611  0.24057950     0.04000
C437        C  0.54757373  0.73842269  0.47774635    -0.12100
C438        C  0.57429252  0.73048734  0.44460286     0.01500
C439        C  0.61849100  0.77692495  0.42876020    -0.10700
C440        C  0.64084033  0.82430787  0.44914707     0.04000
C441        C  0.62231499  0.82892392  0.22601761    -0.10100
H442        H  0.51512677  0.70423304  0.49278561     0.09600
H443        H  0.64045804  0.77480468  0.40395931     0.07100
H444        H  0.63780347  0.86796809  0.23911529     0.07000
O445        O  0.10168080  0.01226714  0.33485667    -0.87500
C446        C  0.10413395  0.13579809  0.52722267     0.88600
Mg447      Mg  0.06401465  0.93803223  0.30836866     1.58100
O448        O  0.03702181  0.09305264  0.37871267    -0.87200
O449        O  0.11705027  0.05355044  0.38976130    -0.74500
C450        C  0.83394339  0.90943048  0.51856049     0.93600
O451        O  0.09683105  0.03558134  0.47726836    -0.74300
O452        O  0.86413653  0.89581275  0.50241148    -0.81800
Mg453      Mg  0.14700389  0.05977502  0.53045999     1.58000
C454        C  0.88849307  0.06635244  0.36932811     0.93500
O455        O  0.20370056  0.10399458  0.34486682    -0.80100
H456        H  0.03104456  0.07394283  0.43519409    -0.05400
C457        C  0.95186746  0.04838501  0.51852898     0.88500
O458        O  0.00085969  0.90880496  0.35695123    -0.74600
O459        O  0.11073679  0.10581599  0.54969042    -0.87400
O460        O  0.93275728  0.09766641  0.38211426    -0.80200
C461        C  0.09621911  0.22301661  0.60639079     0.93700
C462        C  0.22993062  0.15436401  0.34724522     0.93500
Mg463      Mg  0.91291889  0.98063420  0.35691989     1.58000
O464        O  0.84500305  0.93897916  0.54776713    -0.80100
O465        O  0.97023723  0.02030334  0.40545685    -0.74400
O466        O  0.12543244  0.20249099  0.60187577    -0.80200
O467        O  0.18421858  0.00730486  0.51322467    -0.81900
O468        O  0.94716971  0.85253935  0.28140673    -0.80200
C469        C  0.01368733  0.06334627  0.40756692     0.87900
O470        O  0.95447670  0.94329438  0.33591053    -0.87400
O471        O  0.95599808  0.04348039  0.55353723    -0.87500
O472        O  0.95085256  0.01429214  0.49501564    -0.74500
Mg473      Mg  0.12079669  0.13476959  0.37343884     1.58000
O474        O  0.04746777  0.19410143  0.61171963    -0.81900
H475        H  0.10843162  0.97858036  0.38400291    -0.05600
O476        O  0.02538043  0.96920669  0.50371516    -0.87200
H477        H  0.03278389  0.99033966  0.44745009    -0.05500
H478        H  0.93646628  0.90050833  0.38575290    -0.05600
C479        C  0.05042182  0.99797003  0.47497541     0.87900
C480        C  0.10888280  0.01296920  0.36992863     0.88500
C481        C  0.96221252  0.91623205  0.36029228     0.88600
H482        H  0.95153773  0.08385439  0.50740964    -0.05600
O483        O  0.06691465  0.14528935  0.53310667    -0.74600
Mg484      Mg  0.94642867  0.93293794  0.50398949     1.58000
H485        H  0.13045017  0.15436088  0.50214371    -0.05600
C486        C  0.15673492  0.96463009  0.49543301     0.93500
O487        O  0.02336121  0.85696428  0.28281195    -0.81900
C488        C  0.97514660  0.83064461  0.27955318     0.93600
O489        O  0.20961476  0.18012765  0.36262276    -0.81800
Mg490      Mg  0.00023595  0.11734137  0.58061991     1.58200
O491        O  0.11192699  0.95295783  0.48760313    -0.80200
O492        O  0.86665326  0.01790041  0.38146843    -0.81900
C493        C  0.05017746  0.44902816  0.36737638     0.87400
C494        C  0.07578406  0.48915799  0.33317892    -0.52900
C495        C  0.04633108  0.50577415  0.31550014     0.10300
C496        C  0.98766014  0.47129804  0.32894502     0.21200
C497        C  0.01824927  0.46920041  0.39189233    -0.53600
C498        C  0.98294378  0.47854978  0.37285271     0.10400
C499        C  0.00751057  0.39995470  0.34695787    -0.53100
C500        C  0.97332116  0.41038933  0.32773507     0.11000
H501        H  0.11640907  0.50621158  0.32442225     0.15500
H502        H  0.96456442  0.48249953  0.31098577     0.01200
H503        H  0.02111756  0.47045412  0.42270819     0.15800
H504        H  0.00365602  0.36020954  0.34693280     0.15600
C505        C  0.53174105  0.92670151  0.33773771     0.87400
C506        C  0.48587570  0.89630546  0.36607848    -0.52900
C507        C  0.47425458  0.92523599  0.39123654     0.10300
C508        C  0.51059567  0.98814160  0.38273092     0.21200
C509        C  0.51865375  0.96576347  0.31551740    -0.53600
C510        C  0.50838001  0.99961073  0.33845318     0.10400
C511        C  0.57719319  0.96704307  0.36182183    -0.53100
C512        C  0.56667739  0.99919279  0.38514400     0.11000
H513        H  0.46163229  0.85308099  0.36404981     0.15500
H514        H  0.50215175  0.01320254  0.40254228     0.01200
H515        H  0.52138236  0.96921971  0.28417803     0.15800
H516        H  0.61607246  0.97325097  0.35874278     0.15600
C517        C  0.47328914  0.46271947  0.31556913     0.87400
C518        C  0.48384120  0.50946670  0.34167855    -0.52900
C519        C  0.52379009  0.52578754  0.36529047     0.10300
C520        C  0.55216018  0.49150037  0.36026172     0.21200
C521        C  0.52629891  0.48043419  0.29381902    -0.53600
C522        C  0.56811317  0.49447333  0.31643228     0.10400
C523        C  0.46779884  0.41781431  0.34542404    -0.53100
C524        C  0.51012316  0.43137399  0.36691126     0.11000
H525        H  0.46129503  0.52980815  0.34041499     0.15500
H526        H  0.58408662  0.50406528  0.37990454     0.01200
H527        H  0.52915757  0.47724976  0.26287703     0.15800
H528        H  0.43400763  0.37879628  0.35063877     0.15600
C529        C  0.69358530  0.84492975  0.46186813    -0.04500
C530        C  0.73075774  0.90010594  0.45562320    -0.01600
C531        C  0.77687877  0.92176944  0.47496694     0.03400
C532        C  0.78434522  0.88924469  0.50195975    -0.04500
C533        C  0.75692878  0.83236768  0.27031733    -0.01600
C534        C  0.71410571  0.80877421  0.24746773     0.03400
C535        C  0.72022296  0.93570237  0.43205646     0.38100
C536        C  0.76286996  0.80040763  0.30081784     0.38100
C537        C  0.67522672  0.75284519  0.25653956     0.36500
C538        C  0.81707532  0.97733872  0.46720620     0.36500
N539        N  0.64494343  0.70842209  0.26489520    -0.38300
N540        N  0.84968518  0.02155662  0.46164217    -0.38300
N541        N  0.76744390  0.77505886  0.32520290    -0.37800
N542        N  0.71265399  0.96571657  0.41440922    -0.37800
C543        C  0.53906751  0.88261329  0.31508113    -0.04500
C544        C  0.50106999  0.84614190  0.28995826    -0.01600
C545        C  0.50664914  0.80444419  0.27152172     0.03400
C546        C  0.55170240  0.80115917  0.27471907    -0.04500
C547        C  0.58247669  0.82796563  0.30584870    -0.01600
C548        C  0.57387225  0.86513471  0.32735001     0.03400
C549        C  0.45344933  0.84708714  0.28600781     0.38100
C550        C  0.62176165  0.81528932  0.31703410     0.38100
C551        C  0.59377298  0.87678663  0.36545828     0.36500
C552        C  0.45767439  0.77293808  0.51173535     0.36500
N553        N  0.60814237  0.88563691  0.39642810    -0.38300
N554        N  0.42043036  0.73616936  0.50203168    -0.38300
N555        N  0.65294107  0.80556646  0.32704415    -0.37800
N556        N  0.41422942  0.84565727  0.28361860    -0.37800
C557        C  0.56154192  0.67518446  0.42817911    -0.04500
C558        C  0.60105419  0.66360245  0.41385554    -0.01600
C559        C  0.58885430  0.61630036  0.39295236     0.03400
C560        C  0.53732850  0.57454480  0.39074746    -0.04500
C561        C  0.49805710  0.58347581  0.40863059    -0.01600
C562        C  0.50986842  0.63438897  0.42389866     0.03400
C563        C  0.65530079  0.69939253  0.41988763     0.38100
C564        C  0.44458142  0.54066346  0.41106855     0.38100
C565        C  0.46852064  0.64659636  0.43115675     0.36500
C566        C  0.62988014  0.61315677  0.37109516     0.36500
N567        N  0.43603101  0.65737276  0.43589889    -0.38300
N568        N  0.66290835  0.61177140  0.35324220    -0.38300
N569        N  0.40185725  0.50664182  0.41263999    -0.37800
N570        N  0.71067128  0.71466199  0.18299022    -0.37800
C571        C  0.88508189  0.66446294  0.25679326    -0.04500
C572        C  0.90707791  0.67936848  0.29305907    -0.01600
C573        C  0.94001724  0.73418456  0.29994637     0.03400
C574        C  0.94977170  0.77358985  0.27076981    -0.04500
C575        C  0.92871843  0.75850399  0.23426861    -0.01600
C576        C  0.89678498  0.70383942  0.22712949     0.03400
C577        C  0.89945409  0.64075307  0.55508977     0.38100
C578        C  0.93936101  0.79949546  0.20427142     0.38100
C579        C  0.87541648  0.68808791  0.18945688     0.36500
C580        C  0.96736745  0.75308203  0.55781091     0.36500
N581        N  0.85860785  0.67550724  0.15936910    -0.38300
N582        N  0.99362996  0.76997986  0.58360955    -0.38300
N583        N  0.94780201  0.83233651  0.18054906    -0.37800
N584        N  0.89905784  0.61580899  0.58185291    -0.37800
C585        C  0.71114497  0.50530017  0.26177663    -0.04500
C586        C  0.68724145  0.47377250  0.29586236    -0.01600
C587        C  0.64717810  0.47778664  0.31686676     0.03400
C588        C  0.62015833  0.50165349  0.29931672    -0.04500
C589        C  0.64167574  0.52942932  0.26292795    -0.01600
C590        C  0.68709863  0.53247771  0.24510153     0.03400
C591        C  0.70186066  0.43460080  0.30810499     0.38100
C592        C  0.62074957  0.56055962  0.24584757     0.38100
C593        C  0.68788392  0.55379181  0.45348959     0.36500
C594        C  0.64063944  0.46413280  0.35786830     0.36500
N595        N  0.70283231  0.57845581  0.42440576    -0.38400
N596        N  0.63847123  0.45462745  0.39077672    -0.38300
N597        N  0.60343507  0.58531294  0.23287018    -0.37800
N598        N  0.71197177  0.40165305  0.31686866    -0.37800
C599        C  0.93907926  0.48516223  0.39389652    -0.04500
C600        C  0.89035770  0.47210645  0.37788807    -0.01600
C601        C  0.85236750  0.47978695  0.39944746     0.03400
C602        C  0.85661520  0.49037846  0.43906819    -0.04500
C603        C  0.90146489  0.49654839  0.45552189    -0.01600
C604        C  0.94465300  0.50338727  0.43234083     0.03400
C605        C  0.87770788  0.45275871  0.33931142     0.38100
C606        C  0.94982243  0.55064542  0.24428447     0.38100
C607        C  0.99536981  0.53817787  0.44634951     0.36500
C608        C  0.81085517  0.48147729  0.38055188     0.36500
N609        N  0.06390405  0.58744753  0.18445598    -0.38300
N610        N  0.77819844  0.48555584  0.36684787    -0.38300
N611        N  0.96564668  0.57154144  0.27296959    -0.37800
N612        N  0.86503945  0.43777089  0.30860857    -0.37800
C613        C  0.16796028  0.82368101  0.47306405    -0.04500
C614        C  0.15923123  0.84803245  0.26812984    -0.01600
C615        C  0.16844061  0.89907603  0.27935521     0.03400
C616        C  0.16997302  0.92193986  0.48974371    -0.04500
C617        C  0.18619488  0.91484318  0.45261484    -0.01600
C618        C  0.18379276  0.86539256  0.44383704     0.03400
C619        C  0.12861070  0.80254124  0.29484513     0.38100
C620        C  0.20535809  0.95874681  0.42362357     0.38100
C621        C  0.19688150  0.85727162  0.40453897     0.36500
C622        C  0.15420452  0.90549209  0.31889277     0.36500
N623        N  0.20820664  0.85156566  0.37325692    -0.38300
N624        N  0.14132619  0.90975161  0.35003359    -0.38300
N625        N  0.22083694  0.99420352  0.40085216    -0.37800
N626        N  0.10127434  0.76745114  0.31627977    -0.37800
C627        C  0.15965248  0.66614025  0.26997518    -0.04500
C628        C  0.14970844  0.62025730  0.24912942    -0.01600
C629        C  0.10914795  0.56811539  0.26177918     0.03400
C630        C  0.07591314  0.56096738  0.29474614    -0.04500
C631        C  0.08633587  0.60774646  0.31528868    -0.01600
C632        C  0.13027616  0.65843541  0.30483157     0.03400
C633        C  0.17992524  0.61478676  0.47069712     0.38100
C634        C  0.05231950  0.60495475  0.34730994     0.38100
C635        C  0.14981340  0.70074561  0.33251304     0.36500
C636        C  0.10191194  0.52141618  0.24113521     0.36500
N637        N  0.16650449  0.73342925  0.35542969    -0.38300
N638        N  0.08673984  0.47245290  0.47976039    -0.38300
N639        N  0.02553077  0.60581452  0.37211156    -0.37800
N640        N  0.20879599  0.62625930  0.44426361    -0.37800
C641        C  0.33122465  0.82509432  0.46433929    -0.04500
C642        C  0.36352289  0.80450832  0.45152874    -0.01600
C643        C  0.41413930  0.83994825  0.43486932     0.03400
C644        C  0.42884614  0.89400224  0.42148773    -0.04500
C645        C  0.39620565  0.91406835  0.43440037    -0.01600
C646        C  0.35283623  0.88246768  0.46033404     0.03400
C647        C  0.34388078  0.74676170  0.45233516     0.38100
C648        C  0.40258492  0.96401232  0.41777007     0.38100
C649        C  0.32661820  0.92088692  0.21852998     0.36500
C650        C  0.45013706  0.81960883  0.43071926     0.36500
N651        N  0.30874533  0.94485460  0.23285272    -0.38300
N652        N  0.47909248  0.80385263  0.42631606    -0.38300
N653        N  0.40625577  0.00274750  0.40331776    -0.37800
N654        N  0.32832455  0.70062131  0.45246301    -0.37800
C655        C  0.37455731  0.19032649  0.29732438    -0.04500
C656        C  0.33483055  0.16432079  0.51705432    -0.01600
C657        C  0.28656273  0.15557678  0.53122773     0.03400
C658        C  0.28195209  0.18067539  0.32867648    -0.04500
C659        C  0.32461651  0.19906293  0.35174813    -0.01600
C660        C  0.37089445  0.20324054  0.33617947     0.03400
C661        C  0.34117427  0.15008560  0.47780055     0.38100
C662        C  0.32071720  0.21400176  0.39114293     0.38100
C663        C  0.41285691  0.21629320  0.36096509     0.36500
C664        C  0.24716111  0.14509148  0.50406912     0.36500
N665        N  0.44517572  0.22429956  0.38153993    -0.38300
N666        N  0.21723495  0.13821678  0.48139411    -0.38300
N667        N  0.31758097  0.22689843  0.42227507    -0.37800
N668        N  0.34637396  0.13782776  0.44687518    -0.37800
C669        C  0.50482549  0.04762394  0.32034978    -0.04500
C670        C  0.47663018  0.04049211  0.28678301    -0.01600
C671        C  0.47775385  0.08499822  0.26646046     0.03400
C672        C  0.50867279  0.13867070  0.27809318    -0.04500
C673        C  0.53832067  0.14619720  0.31039377    -0.01600
C674        C  0.53199632  0.10137356  0.33369504     0.03400
C675        C  0.44012395  0.98624073  0.27684391     0.38100
C676        C  0.57615897  0.20086551  0.31896107     0.38100
C677        C  0.54673465  0.11146023  0.37327745     0.36500
C678        C  0.44439527  0.07561225  0.23477552     0.36500
N679        N  0.55729988  0.12135379  0.40510573    -0.38300
N680        N  0.41761508  0.06926601  0.20977670    -0.38300
N681        N  0.60771640  0.24487405  0.32371082    -0.37800
N682        N  0.41054411  0.94216824  0.27062261    -0.37800
C683        C  0.51538574  0.31669088  0.45213196    -0.04500
C684        C  0.53443551  0.31988830  0.41370123    -0.01600
C685        C  0.53225705  0.35580310  0.38531060     0.03400
C686        C  0.51374098  0.39209095  0.39562597    -0.04500
C687        C  0.49880410  0.39164598  0.43471543    -0.01600
C688        C  0.50112500  0.35592083  0.46245763     0.03400
C689        C  0.55439176  0.28437433  0.40339206     0.38100
C690        C  0.47693524  0.42530655  0.44561998     0.38100
C691        C  0.49504811  0.35762867  0.25336502     0.36500
C692        C  0.54952415  0.35431895  0.34590998     0.36500
N693        N  0.48288041  0.35933707  0.28511251    -0.38300
N694        N  0.56531633  0.35170660  0.31534615    -0.38300
N695        N  0.47557854  0.45541486  0.20218382    -0.37800
N696        N  0.56984607  0.25503976  0.39689404    -0.37800
C697        C  0.16272088  0.38962094  0.57260185    -0.04500
C698        C  0.11196989  0.35198838  0.56325296    -0.01600
C699        C  0.09364740  0.29741666  0.57165142     0.03400
C700        C  0.11759571  0.28138308  0.59896261    -0.04500
C701        C  0.16228850  0.33581645  0.36652694    -0.01600
C702        C  0.18476183  0.38848524  0.34948266     0.03400
C703        C  0.07973461  0.36670662  0.54189939     0.38100
C704        C  0.18852588  0.32413943  0.39628345     0.38100
C705        C  0.23172048  0.43273147  0.36307100     0.36500
C706        C  0.05801801  0.25853071  0.54581609     0.36500
N707        N  0.27026591  0.46969789  0.37067447    -0.38300
N708        N  0.03177813  0.22773364  0.52411115    -0.38300
N709        N  0.20988525  0.31503455  0.41988283    -0.37800
N710        N  0.05200730  0.37576515  0.52498999    -0.37800
C711        C  0.33688009  0.44445329  0.25068528    -0.04500
C712        C  0.38271903  0.49446062  0.25244710    -0.01600
C713        C  0.42804892  0.49826789  0.26826270     0.03400
C714        C  0.42740870  0.45297118  0.28800287    -0.04500
C715        C  0.38209978  0.40191294  0.28295761    -0.01600
C716        C  0.33849448  0.39801498  0.26411546     0.03400
C717        C  0.38153323  0.54305349  0.24128071     0.38100
C718        C  0.37857672  0.35167983  0.29559317     0.38100
C719        C  0.29307781  0.34536094  0.26055299     0.36500
C720        C  0.47485107  0.55043249  0.26537913     0.36500
N721        N  0.25683298  0.30338198  0.25820988    -0.38300
N722        N  0.51168713  0.59247027  0.26340471    -0.38300
N723        N  0.37303818  0.30991399  0.30498666    -0.37800
N724        N  0.37924015  0.58128596  0.23296393    -0.37800
C725        C  0.09308885  0.44535562  0.39167630    -0.04500
C726        C  0.14111488  0.49353213  0.39881059    -0.01600
C727        C  0.18093014  0.49168433  0.41934754     0.03400
C728        C  0.17265440  0.44377267  0.43796284    -0.04500
C729        C  0.12503508  0.39639859  0.43276501    -0.01600
C730        C  0.08640029  0.39662437  0.40966449     0.03400
C731        C  0.14939808  0.54645962  0.38718498     0.38100
C732        C  0.11573225  0.34638297  0.45163086     0.38100
C733        C  0.03873764  0.34625543  0.40778081     0.36500
C734        C  0.23727177  0.54453767  0.16436830     0.36500
N735        N  0.00179313  0.30451422  0.40732577    -0.38300
N736        N  0.27649449  0.58369848  0.16643349    -0.38300
N737        N  0.10898730  0.30633601  0.46598223    -0.37800
N738        N  0.15553727  0.58818872  0.37684378    -0.37800
C739        C  0.83461035  0.10755766  0.26638291    -0.04500
C740        C  0.80382862  0.05636691  0.28517662    -0.01600
C741        C  0.82218541  0.04118416  0.31741903     0.03400
C742        C  0.86985876  0.07922419  0.33305316    -0.04500
C743        C  0.90019992  0.12897168  0.31240560    -0.01600
C744        C  0.88687738  0.13649438  0.27526450     0.03400
C745        C  0.74809345  0.01983250  0.51675252     0.38100
C746        C  0.93523283  0.17606932  0.33260823     0.38100
C747        C  0.92337356  0.18029480  0.24914016     0.36500
C748        C  0.78953733  0.98754821  0.33497079     0.36500
N749        N  0.95116722  0.21487720  0.22749575    -0.38300
N750        N  0.75476518  0.94333591  0.59290017    -0.38300
N751        N  0.96021996  0.21396142  0.34984539    -0.37800
N752        N  0.70770013  0.98899456  0.50685995    -0.37800
C753        C  0.92249396  0.36510117  0.31343598    -0.04500
C754        C  0.88873868  0.31971619  0.33776382    -0.01600
C755        C  0.84474587  0.27508473  0.32304725     0.03400
C756        C  0.83149672  0.27544122  0.28385444    -0.04500
C757        C  0.86107698  0.32402421  0.26152527    -0.01600
C758        C  0.90736861  0.36681782  0.27550871     0.03400
C759        C  0.90028925  0.31738840  0.37777474     0.38100
C760        C  0.84597701  0.33266695  0.47620879     0.38100
C761        C  0.94277713  0.41086394  0.25004255     0.36500
C762        C  0.81769367  0.22537700  0.34669870     0.36500
N763        N  0.97788778  0.44288601  0.48654778    -0.38300
N764        N  0.79786196  0.18511852  0.36488467    -0.38300
N765        N  0.83289810  0.34043836  0.44690694    -0.37800
N766        N  0.90956432  0.31510804  0.40965693    -0.37800
C767        C  0.68530664  0.11902069  0.45652948    -0.04500
C768        C  0.64809581  0.06710046  0.47187026    -0.01600
C769        C  0.60955703  0.02904574  0.44864154     0.03400
C770        C  0.60697323  0.04187345  0.40960679    -0.04500
C771        C  0.64328027  0.09460952  0.39457585    -0.01600
C772        C  0.67941287  0.13380438  0.41885425     0.03400
C773        C  0.65216484  0.04436780  0.26178141     0.38100
C774        C  0.64500058  0.10911824  0.35406317     0.38100
C775        C  0.70916293  0.18996888  0.40578467     0.36500
C776        C  0.57540668  0.97445801  0.46336541     0.36500
N777        N  0.73182919  0.23516262  0.39591836    -0.38300
N778        N  0.54839205  0.92542136  0.22331178    -0.38300
N779        N  0.64744012  0.12287255  0.32202964    -0.37800
N780        N  0.65411109  0.03029577  0.29286520    -0.37800
C781        C  0.75452064  0.14077648  0.74520346     0.04000
C782        C  0.78196056  0.19632614  0.75624642    -0.12100
C783        C  0.80510972  0.22211788  0.51059562     0.01500
C784        C  0.83098199  0.19270371  0.51033096    -0.10700
C785        C  0.81028173  0.14086324  0.49602056     0.04000
C786        C  0.77227280  0.10660019  0.76026694    -0.10100
H787        H  0.77632996  0.22684325  0.74195835     0.09600
H788        H  0.86620854  0.20925638  0.52561400     0.07100
H789        H  0.76160034  0.06949579  0.74591124     0.07000
C790        C  0.18216324  0.39724382  0.73071695     0.04000
C791        C  0.15236728  0.37559372  0.76565057    -0.12100
C792        C  0.20017048  0.42153801  0.53930037     0.01500
C793        C  0.24601617  0.41914186  0.53421231    -0.10700
C794        C  0.27511457  0.43343684  0.49929467     0.04000
C795        C  0.25383101  0.44387973  0.46626337    -0.10100
H796        H  0.11521179  0.37339123  0.76840651     0.09600
H797        H  0.25905960  0.40322304  0.55694656     0.07100
H798        H  0.27349892  0.44958129  0.43843553     0.07000
C799        C  0.50750841  0.19750241  0.51809161     0.04000
C800        C  0.52611533  0.23555856  0.74057102    -0.12100
C801        C  0.49297361  0.25612585  0.72897931     0.01500
C802        C  0.44151457  0.22819316  0.74351803    -0.10700
C803        C  0.42893748  0.20301468  0.52450821     0.04000
C804        C  0.45876186  0.18089553  0.53600815    -0.10100
H805        H  0.56508460  0.25274222  0.72800719     0.09600
H806        H  0.41357203  0.23801541  0.73222290     0.07100
H807        H  0.44229517  0.14756676  0.55736832     0.07000
C808        C  0.27732999  0.80122168  0.70130446     0.04000
C809        C  0.25293906  0.75330993  0.72622718    -0.12100
C810        C  0.19267855  0.71070871  0.50440936     0.01500
C811        C  0.16461347  0.73448610  0.49051636    -0.10700
C812        C  0.18951770  0.78572758  0.47180231     0.04000
C813        C  0.24612683  0.81066183  0.67700749    -0.10100
H814        H  0.27567073  0.74504493  0.74595756     0.09600
H815        H  0.12306891  0.71337296  0.49553195     0.07100
H816        H  0.26448698  0.84615003  0.65806152     0.07000
C817        C  0.80237890  0.48415008  0.68416968     0.04000
C818        C  0.77257737  0.48827472  0.47118420    -0.12100
C819        C  0.75150447  0.51773931  0.49130568     0.01500
C820        C  0.78529101  0.57139349  0.50001813    -0.10700
C821        C  0.83736005  0.59648609  0.48844185     0.04000
C822        C  0.83211496  0.54029521  0.68358545    -0.10100
H823        H  0.74758767  0.44651508  0.46450958     0.09600
H824        H  0.77057570  0.59471078  0.51497633     0.07100
H825        H  0.87155690  0.56062561  0.67123140     0.07000
C826        C  0.56578326  0.79155073  0.49244761     0.04000
C827        C  0.52598235  0.72082631  0.72919510    -0.12100
C828        C  0.55268874  0.71184288  0.69658967     0.01500
C829        C  0.59645314  0.75782592  0.67992306    -0.10700
C830        C  0.61987439  0.80517358  0.70023247     0.04000
C831        C  0.61040825  0.83425141  0.47505943    -0.10100
H832        H  0.49361848  0.68722128  0.74475762     0.09600
H833        H  0.61815076  0.75465444  0.65528921     0.07100
H834        H  0.62731477  0.87360399  0.48785765     0.07000
O835        O  0.09095613  0.99642447  0.56709735    -0.87500
C836        C  0.08340362  0.08882305  0.77464776     0.88600
Mg837      Mg  0.05164182  0.92527697  0.53623152     1.58100
O838        O  0.03200510  0.07959716  0.61516782    -0.87200
O839        O  0.10646330  0.03370440  0.62354349    -0.74500
C840        C  0.81766359  0.87144838  0.75669081     0.93600
O841        O  0.07986958  0.00787696  0.70679763    -0.74300
O842        O  0.84710164  0.86504810  0.73277730    -0.81800
Mg843      Mg  0.13240112  0.01995308  0.75735387     1.58000
C844        C  0.88543995  0.05927666  0.61070923     0.93500
O845        O  0.19596451  0.08362047  0.58127658    -0.80100
H846        H  0.02566085  0.05858316  0.67125881    -0.05400
C847        C  0.93227375  0.00448043  0.77121429     0.88500
O848        O  0.98659444  0.89321385  0.58347719    -0.74600
O849        O  0.09383439  0.05587632  0.78944549    -0.87400
O850        O  0.93048511  0.08905357  0.62284954    -0.80200
C851        C  0.07512505  0.15184154  0.86782751     0.93700
C852        C  0.22376973  0.13317773  0.58675492     0.93500
Mg853      Mg  0.90665238  0.97314204  0.59249439     1.58000
O854        O  0.82987077  0.88935895  0.79023110    -0.80100
O855        O  0.96426007  0.00744408  0.64096651    -0.74400
O856        O  0.10592895  0.13619872  0.85474581    -0.80200
O857        O  0.16929033  0.97243956  0.72812253    -0.81900
O858        O  0.93430128  0.84868555  0.50620884    -0.80200
C859        C  0.00819321  0.04947494  0.64362215     0.87900
O860        O  0.94591671  0.93587116  0.56661051    -0.87400
O861        O  0.93870541  0.98890149  0.80294300    -0.87500
O862        O  0.93271321  0.98109536  0.74045525    -0.74500
Mg863      Mg  0.11529780  0.11794369  0.61085127     1.58000
O864        O  0.02935187  0.11813225  0.87940778    -0.81900
H865        H  0.09256468  0.95740825  0.61534322    -0.05600
O866        O  0.00920818  0.93648399  0.72912305    -0.87200
H867        H  0.01503695  0.96906073  0.67657105    -0.05500
H868        H  0.92250362  0.88501340  0.61281255    -0.05600
C869        C  0.03336466  0.97119074  0.70314269     0.87900
C870        C  0.09631562  0.99388967  0.60227903     0.88500
C871        C  0.94994853  0.90351678  0.58837846     0.88600
H872        H  0.92879111  0.04046179  0.76937384    -0.05600
O873        O  0.04594614  0.09420382  0.78839907    -0.74600
Mg874      Mg  0.92990703  0.90074996  0.73128720     1.58000
H875        H  0.10675100  0.11383933  0.74989679    -0.05600
C876        C  0.14159087  0.93524943  0.70601580     0.93500
O877        O  0.00875591  0.84890448  0.50542563    -0.81900
C878        C  0.96036400  0.82473747  0.50271734     0.93600
O879        O  0.20395673  0.15939100  0.60216679    -0.81800
Mg880      Mg  0.98300658  0.05191759  0.83934732     1.58200
O881        O  0.09737716  0.92725998  0.69975313    -0.80200
O882        O  0.86288768  0.01041314  0.62195908    -0.81900
C883        C  0.04413729  0.43152100  0.62678446     0.87400
C884        C  0.07494228  0.47565854  0.59541505    -0.52900
C885        C  0.04859516  0.49500684  0.57616765     0.10300
C886        C  0.98871396  0.46161044  0.58663107     0.21200
C887        C  0.01215674  0.45193459  0.65131422    -0.53600
C888        C  0.98027421  0.46497027  0.63089950     0.10400
C889        C  0.00227113  0.38630426  0.60288805    -0.53100
C890        C  0.97172587  0.40090791  0.58305586     0.11000
H891        H  0.11636135  0.49311815  0.58994373     0.15500
H892        H  0.96631620  0.47318337  0.56807973     0.01200
H893        H  0.01346302  0.45238516  0.68241524     0.15800
H894        H  0.99595036  0.34589137  0.60054358     0.15600
C895        C  0.54468131  0.94326138  0.59071523     0.87400
C896        C  0.49759576  0.91698388  0.61781687    -0.52900
C897        C  0.48831245  0.94856819  0.64175093     0.10300
C898        C  0.52990554  0.01054269  0.63420718     0.21200
C899        C  0.53803354  0.98596359  0.56756567    -0.53600
C900        C  0.53079591  0.02265089  0.58923561     0.10400
C901        C  0.59058754  0.97928790  0.61634732    -0.53100
C902        C  0.58391513  0.01464734  0.63934907     0.11000
H903        H  0.47087692  0.87399917  0.61658253     0.15500
H904        H  0.52264954  0.03741810  0.65314827     0.01200
H905        H  0.54183697  0.98850077  0.53627971     0.15800
H906        H  0.62696076  0.97924002  0.61515169     0.15600
C907        C  0.45952403  0.44948775  0.56668018     0.87400
C908        C  0.46848099  0.49403136  0.59421728    -0.52900
C909        C  0.50857207  0.51022603  0.61743662     0.10300
C910        C  0.53868007  0.47787597  0.61067140     0.21200
C911        C  0.51240901  0.46953474  0.54452177    -0.53600
C912        C  0.55448222  0.48333345  0.56640093     0.10400
C913        C  0.45471133  0.40366366  0.59526545    -0.53100
C914        C  0.49726563  0.41721375  0.61658539     0.11000
H915        H  0.44473791  0.51311667  0.59422791     0.15500
H916        H  0.57103271  0.49043167  0.62995899     0.01200
H917        H  0.51503050  0.46825220  0.51340401     0.15800
H918        H  0.42111777  0.36421600  0.59967568     0.15600
C919        C  0.67187869  0.82272342  0.71322751    -0.04500
C920        C  0.71234510  0.87620033  0.70549599    -0.01600
C921        C  0.76017769  0.89303298  0.72127213     0.03400
C922        C  0.76705873  0.85666950  0.74469738    -0.04500
C923        C  0.74767435  0.83475403  0.50871193    -0.01600
C924        C  0.70218256  0.81242949  0.48903610     0.03400
C925        C  0.70504238  0.91535738  0.68352555     0.38100
C926        C  0.75659454  0.80182060  0.53658478     0.38100
C927        C  0.66298871  0.75727344  0.50003033     0.36500
C928        C  0.80222538  0.94802513  0.71410149     0.36500
N929        N  0.63298243  0.71339506  0.51003530    -0.38300
N930        N  0.83558673  0.99193421  0.70870263    -0.38300
N931        N  0.76360174  0.77560485  0.55876274    -0.37800
N932        N  0.70221814  0.94939276  0.66704739    -0.37800
C933        C  0.54556128  0.89563940  0.56806309    -0.04500
C934        C  0.50462452  0.86140545  0.54389190    -0.01600
C935        C  0.50428157  0.81637089  0.52591238     0.03400
C936        C  0.54620117  0.80746749  0.52812959    -0.04500
C937        C  0.57974895  0.83285239  0.55819655    -0.01600
C938        C  0.57594091  0.87265982  0.58004390     0.03400
C939        C  0.45913403  0.86695461  0.54117177     0.38100
C940        C  0.61632981  0.81574475  0.56824913     0.38100
C941        C  0.59122605  0.87822476  0.61937570     0.36500
C942        C  0.43859688  0.76123669  0.75690966     0.36500
N943        N  0.60000932  0.88152335  0.65170849    -0.38300
N944        N  0.40226361  0.72640125  0.74442168    -0.38300
N945        N  0.64546075  0.80247847  0.57737143    -0.37800
N946        N  0.42088891  0.86793708  0.53994208    -0.37800
C947        C  0.54121598  0.65633794  0.68162377    -0.04500
C948        C  0.58178668  0.64641535  0.66729844    -0.01600
C949        C  0.57107845  0.60066873  0.64524301     0.03400
C950        C  0.52039889  0.55736490  0.64375068    -0.04500
C951        C  0.48005047  0.56366271  0.66269577    -0.01600
C952        C  0.49004649  0.61385777  0.67822048     0.03400
C953        C  0.63547448  0.68135131  0.67535230     0.38100
C954        C  0.42721818  0.51932640  0.66541010     0.38100
C955        C  0.44701840  0.62273441  0.68764149     0.36500
C956        C  0.61233777  0.60114818  0.62111100     0.36500
N957        N  0.41272966  0.63018558  0.69443632    -0.38300
N958        N  0.64525663  0.60280635  0.60111708    -0.38300
N959        N  0.38483963  0.48448298  0.66730338    -0.37800
N960        N  0.69903215  0.72728550  0.42343358    -0.37800
C961        C  0.86995058  0.65483602  0.49201950    -0.04500
C962        C  0.90165538  0.67570442  0.52353139    -0.01600
C963        C  0.93428937  0.73159467  0.52546709     0.03400
C964        C  0.93255287  0.76663975  0.49719109    -0.04500
C965        C  0.89987346  0.74573325  0.46616120    -0.01600
C966        C  0.87022108  0.68978836  0.46271903     0.03400
C967        C  0.87895285  0.61319384  0.76213772     0.38100
C968        C  0.89540698  0.78122843  0.43814568     0.38100
C969        C  0.84021830  0.66822139  0.42888644     0.36500
C970        C  0.95012005  0.72473399  0.76343271     0.36500
N971        N  0.81702279  0.65146465  0.40158907    -0.38300
N972        N  0.97512141  0.73847143  0.79007111    -0.38300
N973        N  0.88976891  0.80795545  0.41561537    -0.37800
N974        N  0.87622047  0.58433926  0.78718248    -0.37800
C975        C  0.69541103  0.49731710  0.50487521    -0.04500
C976        C  0.67615722  0.46837974  0.54065888    -0.01600
C977        C  0.63538480  0.46971846  0.56294422     0.03400
C978        C  0.60642977  0.49258807  0.54732455    -0.04500
C979        C  0.62537374  0.52065879  0.51062505    -0.01600
C980        C  0.66892241  0.52296638  0.48998095     0.03400
C981        C  0.69859888  0.43683859  0.55483142     0.38100
C982        C  0.60404472  0.55280210  0.49558066     0.38100
C983        C  0.66530396  0.52960956  0.68983658     0.36500
C984        C  0.62835767  0.45208775  0.60314135     0.36500
N985        N  0.67883794  0.55483070  0.66095433    -0.38400
N986        N  0.62594888  0.43839815  0.63518224    -0.38300
N987        N  0.58778938  0.57903278  0.48330991    -0.37800
N988        N  0.71513788  0.41020567  0.56587180    -0.37800
C989        C  0.93224091  0.46768736  0.64721892    -0.04500
C990        C  0.91069047  0.49187114  0.62389654    -0.01600
C991        C  0.85863755  0.47962599  0.63034998     0.03400
C992        C  0.83179255  0.45777769  0.66665530    -0.04500
C993        C  0.85341362  0.43571736  0.69155555    -0.01600
C994        C  0.90329195  0.44152814  0.68254591     0.03400
C995        C  0.94527449  0.53874986  0.59943517     0.38100
C996        C  0.90253505  0.49596125  0.49695433     0.38100
C997        C  0.92829907  0.43260254  0.71398716     0.36500
C998        C  0.83445102  0.49588628  0.60163041     0.36500
N999        N  0.03567850  0.56696056  0.45744368    -0.38300
N1000       N  0.81465825  0.50814601  0.57860056    -0.38300
N1001       N  0.90004712  0.49184948  0.53024430    -0.37800
N1002       N  0.97323177  0.57634186  0.58011386    -0.37800
C1003       C  0.16048794  0.80401776  0.66780839    -0.04500
C1004       C  0.14544409  0.82902335  0.50851522    -0.01600
C1005       C  0.14850877  0.87847543  0.51725934     0.03400
C1006       C  0.15346893  0.89327423  0.69403536    -0.04500
C1007       C  0.18126307  0.89845904  0.65880119    -0.01600
C1008       C  0.18406689  0.85329605  0.64518831     0.03400
C1009       C  0.11547516  0.78345687  0.53541440     0.38100
C1010       C  0.20794303  0.95008776  0.63754005     0.38100
C1011       C  0.21140013  0.85742962  0.60850999     0.36500
C1012       C  0.12700849  0.88350138  0.55443352     0.36500
N1013       N  0.23346194  0.86102203  0.57928195    -0.38300
N1014       N  0.10921010  0.88577919  0.58421214    -0.38300
N1015       N  0.22936312  0.99139989  0.62069349    -0.37800
N1016       N  0.08940122  0.74778133  0.55687411    -0.37800
C1017       C  0.16101277  0.65545046  0.52519768    -0.04500
C1018       C  0.14875074  0.60828688  0.50541300    -0.01600
C1019       C  0.10893930  0.55661784  0.52000524     0.03400
C1020       C  0.08076623  0.55058679  0.55572281    -0.04500
C1021       C  0.09582037  0.59804321  0.57688526    -0.01600
C1022       C  0.13504892  0.64950248  0.56155634     0.03400
C1023       C  0.21595433  0.62481346  0.72080502     0.38100
C1024       C  0.07327434  0.59405007  0.61560537     0.38100
C1025       C  0.15172929  0.69651273  0.58435378     0.36500
C1026       C  0.09689334  0.50973061  0.49796054     0.36500
N1027       N  0.16611163  0.73467700  0.60223865    -0.38300
N1028       N  0.15567762  0.48745324  0.76224818    -0.38300
N1029       N  0.05595042  0.59161075  0.64664873    -0.37800
N1030       N  0.24967725  0.63007128  0.70009445    -0.37800
C1031       C  0.33503746  0.84297207  0.69784640    -0.04500
C1032       C  0.37237023  0.82677987  0.69231048    -0.01600
C1033       C  0.42499857  0.86552444  0.68410062     0.03400
C1034       C  0.43962745  0.91864031  0.66897612    -0.04500
C1035       C  0.40168700  0.93460005  0.67256687    -0.01600
C1036       C  0.35250973  0.89944095  0.69165092     0.03400
C1037       C  0.35609886  0.77045354  0.68697297     0.38100
C1038       C  0.41059741  0.98424451  0.65347318     0.38100
C1039       C  0.32983459  0.90935288  0.48210564     0.36500
C1040       C  0.46280060  0.84764324  0.68616282     0.36500
N1041       N  0.31157578  0.93079561  0.49947813    -0.38300
N1042       N  0.49268985  0.83290859  0.68617653    -0.38300
N1043       N  0.41648385  0.02278735  0.63710993    -0.37800
N1044       N  0.34380505  0.72611732  0.68048652    -0.37800
C1045       C  0.37611963  0.18320444  0.54171459    -0.04500
C1046       C  0.33407907  0.12873698  0.75912324    -0.01600
C1047       C  0.28154822  0.10801625  0.76838638     0.03400
C1048       C  0.27743547  0.15918350  0.57121870    -0.04500
C1049       C  0.31802733  0.17629562  0.59630916    -0.01600
C1050       C  0.36736353  0.18799901  0.58161195     0.03400
C1051       C  0.35096731  0.11794225  0.72187863     0.38100
C1052       C  0.30911908  0.18203262  0.63707243     0.38100
C1053       C  0.40782873  0.20153145  0.60806804     0.36500
C1054       C  0.24652936  0.09119955  0.73716060     0.36500
N1055       N  0.43898021  0.20999781  0.62989215    -0.38300
N1056       N  0.22048330  0.08093976  0.71115572    -0.38300
N1057       N  0.30262856  0.18765187  0.66950493    -0.37800
N1058       N  0.36443270  0.10892420  0.69241898    -0.37800
C1059       C  0.52864859  0.07067353  0.56924033    -0.04500
C1060       C  0.50186215  0.06327804  0.53456752    -0.01600
C1061       C  0.50179045  0.10704116  0.51428940     0.03400
C1062       C  0.52868810  0.16015773  0.52728079    -0.04500
C1063       C  0.55881802  0.16903064  0.55947612    -0.01600
C1064       C  0.55590932  0.12487715  0.58196343     0.03400
C1065       C  0.46936907  0.00985684  0.52111602     0.38100
C1066       C  0.59421289  0.22444675  0.56827323     0.38100
C1067       C  0.57722266  0.13622286  0.61962124     0.36500
C1068       C  0.47046826  0.09732841  0.48112297     0.36500
N1069       N  0.59325346  0.14727380  0.65007269    -0.38300
N1070       N  0.44545752  0.09127087  0.45497816    -0.38300
N1071       N  0.62347701  0.26907173  0.57380506    -0.37800
N1072       N  0.44305074  0.96780443  0.50933852    -0.37800
C1073       C  0.50657499  0.30492074  0.70172901    -0.04500
C1074       C  0.52580802  0.30884919  0.66326014    -0.01600
C1075       C  0.52132415  0.34316493  0.63478679     0.03400
C1076       C  0.50111997  0.37795386  0.64517411    -0.04500
C1077       C  0.48449320  0.37575061  0.68413626    -0.01600
C1078       C  0.48836136  0.34105697  0.71192004     0.03400
C1079       C  0.54797911  0.27527445  0.65301767     0.38100
C1080       C  0.45850025  0.40547822  0.69502536     0.38100
C1081       C  0.48585406  0.35679552  0.50210603     0.36500
C1082       C  0.53740636  0.34124257  0.59508714     0.36500
N1083       N  0.47218823  0.35227989  0.53420822    -0.38300
N1084       N  0.55214920  0.33853171  0.56416041    -0.38300
N1085       N  0.45886915  0.45207687  0.45300470    -0.37800
N1086       N  0.56509900  0.24731859  0.64680884    -0.37800
C1087       C  0.13115896  0.31299542  0.82562367    -0.04500
C1088       C  0.08229749  0.27129230  0.81504228    -0.01600
C1089       C  0.06230156  0.21882482  0.83107838     0.03400
C1090       C  0.08821415  0.20835809  0.86016871    -0.04500
C1091       C  0.16184674  0.32099546  0.61642261    -0.01600
C1092       C  0.18249833  0.37593652  0.60479508     0.03400
C1093       C  0.05221498  0.27934862  0.78670475     0.38100
C1094       C  0.18808021  0.30530982  0.64379738     0.38100
C1095       C  0.22896413  0.41754676  0.62102542     0.36500
C1096       C  0.01854068  0.17475867  0.81370203     0.36500
N1097       N  0.26717304  0.45147781  0.63206274    -0.38300
N1098       N  0.98437947  0.14080500  0.79847120    -0.38300
N1099       N  0.20914732  0.29289997  0.66562857    -0.37800
N1100       N  0.02543095  0.28218747  0.76469701    -0.37800
C1101       C  0.32694849  0.43562864  0.50102652    -0.04500
C1102       C  0.37169264  0.48554647  0.50558746    -0.01600
C1103       C  0.41630112  0.48824855  0.52121606     0.03400
C1104       C  0.41492006  0.44141305  0.53900689    -0.04500
C1105       C  0.37073934  0.39068437  0.53140672    -0.01600
C1106       C  0.32861968  0.38828174  0.51145634     0.03400
C1107       C  0.36963702  0.53474525  0.49835259     0.38100
C1108       C  0.36664611  0.33973191  0.54302592     0.38100
C1109       C  0.28445854  0.33629013  0.50397620     0.36500
C1110       C  0.46270282  0.54083141  0.52054799     0.36500
N1111       N  0.24941671  0.29471137  0.49810128    -0.38300
N1112       N  0.49890963  0.58328887  0.52037073    -0.38300
N1113       N  0.36069491  0.29749028  0.55157329    -0.37800
N1114       N  0.36676684  0.57344803  0.49349631    -0.37800
C1115       C  0.08214337  0.42024824  0.65154876    -0.04500
C1116       C  0.12933077  0.46465120  0.66405604    -0.01600
C1117       C  0.16635374  0.45638516  0.68337866     0.03400
C1118       C  0.15444759  0.40474233  0.69716610    -0.04500
C1119       C  0.10859707  0.36029930  0.68514296    -0.01600
C1120       C  0.07303796  0.36753064  0.66289419     0.03400
C1121       C  0.13963791  0.51978403  0.65927182     0.38100
C1122       C  0.09820617  0.30603326  0.69546387     0.38100
C1123       C  0.02450644  0.31973254  0.65726057     0.36500
C1124       C  0.23110582  0.53934703  0.42188658     0.36500
N1125       N  0.98626214  0.28011758  0.65371927    -0.38300
N1126       N  0.27187463  0.57639556  0.42387591    -0.38300
N1127       N  0.09008705  0.26270831  0.70310671    -0.37800
N1128       N  0.14813861  0.56384189  0.65495124    -0.37800
C1129       C  0.83188085  0.10623839  0.51008814    -0.04500
C1130       C  0.79922858  0.05577054  0.52954019    -0.01600
C1131       C  0.81722184  0.03859958  0.56099516     0.03400
C1132       C  0.86641880  0.07420283  0.57551908    -0.04500
C1133       C  0.89787338  0.12359886  0.55491458    -0.01600
C1134       C  0.88440931  0.13274603  0.51832434     0.03400
C1135       C  0.74276791  0.99713521  0.79446485     0.38100
C1136       C  0.93435953  0.16944435  0.57523752     0.38100
C1137       C  0.92208753  0.17530493  0.49195027     0.36500
C1138       C  0.78272516  0.98593579  0.57937698     0.36500
N1139       N  0.95120242  0.20885946  0.47021293    -0.38300
N1140       N  0.74591640  0.89001098  0.83933732    -0.38300
N1141       N  0.96046402  0.20615236  0.59304294    -0.37800
N1142       N  0.70580466  0.97108456  0.77816156    -0.37800
C1143       C  0.92049990  0.35901219  0.56706869    -0.04500
C1144       C  0.88462027  0.31286462  0.58971859    -0.01600
C1145       C  0.84297985  0.26883505  0.57246468     0.03400
C1146       C  0.83119585  0.27313310  0.53344269    -0.04500
C1147       C  0.86120060  0.32355702  0.51352020    -0.01600
C1148       C  0.90736109  0.36404656  0.52911280     0.03400
C1149       C  0.89037898  0.31079418  0.63089492     0.38100
C1150       C  0.90892674  0.26292588  0.73897224     0.38100
C1151       C  0.94502836  0.40775327  0.50471529     0.36500
C1152       C  0.81840283  0.21624311  0.59250718     0.36500
N1153       N  0.03463858  0.38943603  0.73691806    -0.38300
N1154       N  0.80073353  0.17347238  0.60699865    -0.38300
N1155       N  0.90985233  0.23563312  0.71485988    -0.37800
N1156       N  0.89477176  0.31065978  0.66393160    -0.37800
C1157       C  0.70749452  0.11460549  0.71930293    -0.04500
C1158       C  0.66368978  0.06394869  0.73114979    -0.01600
C1159       C  0.62437849  0.03267200  0.70540612     0.03400
C1160       C  0.62548540  0.05129327  0.66709433    -0.04500
C1161       C  0.66819340  0.10291808  0.65545850    -0.01600
C1162       C  0.70649168  0.13539311  0.68203160     0.03400
C1163       C  0.65088159  0.05251482  0.51150780     0.38100
C1164       C  0.67428994  0.12270012  0.61573276     0.38100
C1165       C  0.74224872  0.19155953  0.67198111     0.36500
C1166       C  0.58444039  0.97889847  0.71775684     0.36500
N1167       N  0.76948313  0.23707314  0.66461896    -0.38300
N1168       N  0.54792328  0.92999611  0.47328863    -0.38300
N1169       N  0.68015352  0.13994275  0.58427533    -0.37800
N1170       N  0.65414645  0.04130329  0.54310848    -0.37800
C1171       C  0.72885190  0.13946504  0.98577182     0.04000
C1172       C  0.75074791  0.19245510  0.00171539    -0.12100
C1173       C  0.81594908  0.21144950  0.78762296     0.01500
C1174       C  0.81461938  0.16941297  0.80969208    -0.10700
C1175       C  0.80137358  0.11954179  0.79372744     0.04000
C1176       C  0.75574234  0.11036286  0.98963786    -0.10100
H1177       H  0.73163040  0.21613333  0.99888003     0.09600
H1178       H  0.83034058  0.17805010  0.83786517     0.07100
H1179       H  0.74184256  0.07235424  0.97560193     0.07000
C1180       C  0.22310480  0.44113343  0.97831232     0.04000
C1181       C  0.20050749  0.42967172  0.01612097    -0.12100
C1182       C  0.16848790  0.35430161  0.79540105     0.01500
C1183       C  0.21962202  0.36433756  0.79240642    -0.10700
C1184       C  0.25397940  0.39301743  0.76089734     0.04000
C1185       C  0.23446474  0.40819655  0.72901624    -0.10100
H1186       H  0.17012874  0.43891312  0.02234115     0.09600
H1187       H  0.23312379  0.34753608  0.81419409     0.07100
H1188       H  0.25923901  0.42690190  0.70337410     0.07000
C1189       C  0.50717440  0.19157745  0.76891528     0.04000
C1190       C  0.51644120  0.22063773  0.98878432    -0.12100
C1191       C  0.49248995  0.25251331  0.98070910     0.01500
C1192       C  0.44527942  0.23819195  0.00035383    -0.10700
C1193       C  0.42498815  0.18905432  0.77322127     0.04000
C1194       C  0.45785665  0.17206000  0.78656608    -0.10100
H1195       H  0.55190404  0.22897241  0.97303715     0.09600
H1196       H  0.42449220  0.25905917  0.99282074     0.07100
H1197       H  0.44280516  0.13895497  0.80809584     0.07000
C1198       C  0.25904527  0.79800162  0.96419947     0.04000
C1199       C  0.23215688  0.74898612  0.98817272    -0.12100
C1200       C  0.19852066  0.71634517  0.72532794     0.01500
C1201       C  0.17031074  0.72869133  0.69963756    -0.10700
C1202       C  0.19236416  0.77852554  0.67875241     0.04000
C1203       C  0.22822044  0.81450622  0.94539769    -0.10100
H1204       H  0.25337547  0.73353618  0.00334390     0.09600
H1205       H  0.13001219  0.69965552  0.69761098     0.07100
H1206       H  0.24569759  0.84929472  0.92539424     0.07000
C1207       C  0.85447379  0.53737641  0.95046615     0.04000
C1208       C  0.75109791  0.45939783  0.70266618    -0.12100
C1209       C  0.73218878  0.49298466  0.71954867     0.01500
C1210       C  0.76551909  0.54875889  0.71868180    -0.10700
C1211       C  0.81365583  0.57160961  0.69979029     0.04000
C1212       C  0.87857232  0.59386390  0.94795071    -0.10100
H1213       H  0.72686701  0.41591753  0.70377022     0.09600
H1214       H  0.75376652  0.57515095  0.73273762     0.07100
H1215       H  0.91717212  0.61712884  0.93438544     0.07000
C1216       C  0.54467078  0.77437535  0.74313840     0.04000
C1217       C  0.54402719  0.72114465  0.97563197    -0.12100
C1218       C  0.57001216  0.71253077  0.94225830     0.01500
C1219       C  0.61337086  0.75901733  0.92526502    -0.10700
C1220       C  0.63427774  0.80847013  0.94333897     0.04000
C1221       C  0.59021601  0.81627526  0.72605384    -0.10100
H1222       H  0.51246295  0.68714574  0.99153567     0.09600
H1223       H  0.63528138  0.75634257  0.90064855     0.07100
H1224       H  0.60800519  0.85566831  0.73880694     0.07000
O1225       O  0.07537186  0.94722053  0.78911092    -0.87500
C1226       C  0.10197221  0.14051660  0.03615896     0.88600
Mg1227     Mg  0.03673373  0.88507250  0.74780662     1.58100
O1228       O  0.01862796  0.00800132  0.85889911    -0.87200
O1229       O  0.09633306  0.96899782  0.84907009    -0.74500
C1230       C  0.83550702  0.92207798  0.00049328     0.93600
O1231       O  0.10669713  0.06544130  0.97198543    -0.74300
O1232       O  0.87031832  0.92229571  0.97833729    -0.81800
Mg1233     Mg  0.14917612  0.06977673  0.02702275     1.58000
C1234       C  0.87309912  0.98741515  0.87568494     0.93500
O1235       O  0.18414572  0.03278204  0.80505624    -0.80100
H1236       H  0.01979625  0.96336944  0.90376278    -0.05400
C1237       C  0.95228200  0.06042190  0.01943941     0.88500
O1238       O  0.97279651  0.83866144  0.79432180    -0.74600
O1239       O  0.10836811  0.10629402  0.05380215    -0.87400
O1240       O  0.91947470  0.00929970  0.88567191    -0.80200
C1241       C  0.08900339  0.20607388  0.12265543     0.93700
C1242       C  0.20934571  0.07950497  0.81775168     0.93500
Mg1243     Mg  0.89262539  0.90949335  0.83138256     1.58000
O1244       O  0.84232688  0.93795571  0.03514896    -0.80100
O1245       O  0.95394628  0.92727062  0.87531708    -0.74400
O1246       O  0.11602751  0.18337280  0.11686051    -0.80200
O1247       O  0.19084034  0.02592786  0.00203184    -0.81900
O1248       O  0.91959561  0.81942727  0.71755461    -0.80200
C1249       C  0.99843811  0.96682529  0.88051988     0.87900
O1250       O  0.93014627  0.88255195  0.79224123    -0.87400
O1251       O  0.95351321  0.04268899  0.05280224    -0.87500
O1252       O  0.95561146  0.03746405  0.98937921    -0.74500
Mg1253     Mg  0.10063009  0.05243526  0.85085664     1.58000
O1254       O  0.04013854  0.17881641  0.12865463    -0.81900
H1255       H  0.08508828  0.89823650  0.82745494    -0.05600
O1256       O  0.03215305  0.99331865  0.98622767    -0.87200
H1257       H  0.04577561  0.03957139  0.93805866    -0.05500
H1258       H  0.90618862  0.81602551  0.82611231    -0.05600
C1259       C  0.06045114  0.03265933  0.96424696     0.87900
C1260       C  0.08570974  0.93611117  0.82194327     0.88500
C1261       C  0.93463850  0.84436743  0.80489751     0.88600
H1262       H  0.95215768  0.09825383  0.01628553    -0.05600
O1263       O  0.06357447  0.14730643  0.04461122    -0.74600
Mg1264     Mg  0.95270428  0.95718417  0.98241594     1.58000
H1265       H  0.12945784  0.16508560  0.01297393    -0.05600
C1266       C  0.16517729  0.98829839  0.97963339     0.93500
O1267       O  0.99427475  0.82080768  0.70731916    -0.81900
C1268       C  0.94560712  0.79697781  0.70748885     0.93600
O1269       O  0.18687484  0.09862683  0.83881788    -0.81800
Mg1270     Mg  0.99474520  0.10843873  0.09060321     1.58200
O1271       O  0.12468742  0.98461913  0.96720302    -0.80200
O1272       O  0.84968968  0.93676548  0.87322931    -0.81900
C1273       C  0.07423438  0.45802681  0.87360156     0.87400
C1274       C  0.10058291  0.50077664  0.84084546    -0.52900
C1275       C  0.07014813  0.51234384  0.81905992     0.10300
C1276       C  0.01113937  0.47379956  0.83044668     0.21200
C1277       C  0.03790855  0.47411927  0.89596380    -0.53600
C1278       C  0.00406955  0.48216856  0.87411621     0.10400
C1279       C  0.03665681  0.40794407  0.85121475    -0.53100
C1280       C  0.00193707  0.41441758  0.82993443     0.11000
H1281       H  0.14174633  0.52074703  0.83455953     0.15500
H1282       H  0.98615011  0.48128776  0.81151145     0.01200
H1283       H  0.03796361  0.47657752  0.92721146     0.15800
H1284       H  0.03561741  0.36939521  0.85281138     0.15600
C1285       C  0.52264622  0.92647828  0.84064046     0.87400
C1286       C  0.47428587  0.89988449  0.86673149    -0.52900
C1287       C  0.46527586  0.93163560  0.89058894     0.10300
C1288       C  0.50652473  0.99323739  0.88328020     0.21200
C1289       C  0.51799529  0.97030566  0.81714743    -0.53600
C1290       C  0.50979726  0.00678115  0.83850817     0.10400
C1291       C  0.56744556  0.96197309  0.86717980    -0.53100
C1292       C  0.55973712  0.99743561  0.88921347     0.11000
H1293       H  0.44747420  0.85685573  0.86565145     0.15500
H1294       H  0.49832328  0.01872909  0.90270956     0.01200
H1295       H  0.52645363  0.97504186  0.78625307     0.15800
H1296       H  0.60409270  0.96259941  0.86665022     0.15600
C1297       C  0.45434120  0.43538964  0.82013812     0.87400
C1298       C  0.46855110  0.48469078  0.84443026    -0.52900
C1299       C  0.51273455  0.50442227  0.86386823     0.10300
C1300       C  0.54117491  0.47049848  0.85619215     0.21200
C1301       C  0.50320501  0.45218900  0.79351018    -0.53600
C1302       C  0.54898055  0.46898313  0.81138259     0.10400
C1303       C  0.45507898  0.39403366  0.85002961    -0.53100
C1304       C  0.50092251  0.41088963  0.86722371     0.11000
H1305       H  0.44503519  0.50395881  0.84494761     0.15500
H1306       H  0.57673052  0.48505173  0.87214115     0.01200
H1307       H  0.50042392  0.44668244  0.76272295     0.15800
H1308       H  0.42299109  0.35525763  0.85885656     0.15600
C1309       C  0.68940642  0.83680018  0.95163574    -0.04500
C1310       C  0.72035438  0.89309985  0.94362530    -0.01600
C1311       C  0.76790346  0.92214419  0.96090635     0.03400
C1312       C  0.78389664  0.89516041  0.98643742    -0.04500
C1313       C  0.72678662  0.80464510  0.75423136    -0.01600
C1314       C  0.67862286  0.78800478  0.73965930     0.03400
C1315       C  0.70243520  0.92207269  0.91970718     0.38100
C1316       C  0.73518674  0.76811172  0.77890796     0.38100
C1317       C  0.63628136  0.73609429  0.75408654     0.36500
C1318       C  0.79953166  0.98002692  0.95372383     0.36500
N1319       N  0.60416267  0.69459385  0.76680906    -0.38300
N1320       N  0.82433083  0.02633477  0.94850057    -0.38300
N1321       N  0.74183564  0.73894958  0.79839034    -0.37800
N1322       N  0.68988196  0.94714354  0.90097005    -0.37800
C1323       C  0.52429686  0.87944568  0.81801104    -0.04500
C1324       C  0.48499941  0.84742749  0.79204141    -0.01600
C1325       C  0.48405271  0.80197264  0.77434193     0.03400
C1326       C  0.52468768  0.79122176  0.77803757    -0.04500
C1327       C  0.55731633  0.81558646  0.80874052    -0.01600
C1328       C  0.55372184  0.85551393  0.83054131     0.03400
C1329       C  0.44187933  0.85647996  0.78678789     0.38100
C1330       C  0.59382291  0.79840639  0.81884058     0.38100
C1331       C  0.57099918  0.86241499  0.86943538     0.36500
C1332       C  0.45371748  0.75491516  0.00576254     0.36500
N1333       N  0.58250915  0.86654452  0.90120207    -0.38300
N1334       N  0.41873495  0.71913322  0.99264493    -0.38300
N1335       N  0.62317669  0.78544232  0.82790455    -0.37800
N1336       N  0.40605970  0.86161193  0.78340886    -0.37800
C1337       C  0.55609105  0.65666213  0.92583538    -0.04500
C1338       C  0.59448227  0.64447820  0.90981358    -0.01600
C1339       C  0.58067407  0.59657723  0.88895568     0.03400
C1340       C  0.52881702  0.55473329  0.88851832    -0.04500
C1341       C  0.49109053  0.56413767  0.90860534    -0.01600
C1342       C  0.50402856  0.61561593  0.92336781     0.03400
C1343       C  0.64909279  0.67960506  0.91484708     0.38100
C1344       C  0.43807166  0.52085553  0.91450660     0.38100
C1345       C  0.46292894  0.62768073  0.93214715     0.36500
C1346       C  0.62043696  0.59218759  0.86630878     0.36500
N1347       N  0.43021931  0.63786044  0.93797534    -0.38300
N1348       N  0.65244244  0.58955895  0.84794109    -0.38300
N1349       N  0.39576938  0.48614641  0.91850960    -0.37800
N1350       N  0.67895356  0.70763939  0.68058385    -0.37800
C1351       C  0.84838602  0.62930987  0.70041431    -0.04500
C1352       C  0.88191345  0.64934090  0.73072957    -0.01600
C1353       C  0.91715544  0.70444973  0.73105103     0.03400
C1354       C  0.91755129  0.73945420  0.70150961    -0.04500
C1355       C  0.88419446  0.71903810  0.67085913    -0.01600
C1356       C  0.85009385  0.66341758  0.66992090     0.03400
C1357       C  0.93239161  0.67754173  0.01815471     0.38100
C1358       C  0.88383583  0.75471706  0.64077051     0.38100
C1359       C  0.81645942  0.64125215  0.63799998     0.36500
C1360       C  0.00094117  0.78983651  0.00745254     0.36500
N1361       N  0.78991898  0.62364833  0.61242079    -0.38300
N1362       N  0.03602445  0.81065521  0.02657668    -0.38300
N1363       N  0.88192912  0.78145063  0.61613813    -0.37800
N1364       N  0.93753411  0.65536525  0.04442467    -0.37800
C1365       C  0.67950316  0.47549824  0.73958014    -0.04500
C1366       C  0.66758758  0.45222343  0.77752846    -0.01600
C1367       C  0.62884788  0.45405500  0.80231775     0.03400
C1368       C  0.59732442  0.47499732  0.78853315    -0.04500
C1369       C  0.61034365  0.49924481  0.75059078    -0.01600
C1370       C  0.65033899  0.49939866  0.72666660     0.03400
C1371       C  0.69792897  0.42936497  0.79201212     0.38100
C1372       C  0.58679522  0.53020030  0.73756074     0.38100
C1373       C  0.69477565  0.53680767  0.94190097     0.36500
C1374       C  0.62633094  0.43913771  0.84279304     0.36500
N1375       N  0.70078504  0.54755161  0.90901548    -0.38400
N1376       N  0.62742113  0.42845044  0.87503146    -0.38300
N1377       N  0.56813285  0.55521848  0.72759135    -0.37800
N1378       N  0.72203238  0.41080731  0.80326294    -0.37800
C1379       C  0.96341769  0.49510685  0.89245728    -0.04500
C1380       C  0.91172032  0.47319031  0.88024008    -0.01600
C1381       C  0.87473567  0.48352662  0.90055030     0.03400
C1382       C  0.88716309  0.51358978  0.93440222    -0.04500
C1383       C  0.93796762  0.53396781  0.94677812    -0.01600
C1384       C  0.97633493  0.52946094  0.92420350     0.03400
C1385       C  0.89596927  0.44273543  0.84557642     0.38100
C1386       C  0.82468311  0.40860053  0.72741233     0.38100
C1387       C  0.03014631  0.56546556  0.93119012     0.36500
C1388       C  0.82423877  0.46513948  0.88569948     0.36500
N1389       N  0.94793917  0.42951208  0.74116342    -0.38300
N1390       N  0.78382641  0.45086740  0.87415050    -0.38300
N1391       N  0.80101414  0.38602794  0.75559226    -0.37800
N1392       N  0.88154165  0.41909818  0.81765327    -0.37800
C1393       C  0.16502031  0.83940191  0.96582328    -0.04500
C1394       C  0.12117993  0.79661191  0.69524168    -0.01600
C1395       C  0.12350993  0.84174411  0.71227915     0.03400
C1396       C  0.17409051  0.94216467  0.97423298    -0.04500
C1397       C  0.16601271  0.91861540  0.93782349    -0.01600
C1398       C  0.15783837  0.86595194  0.93413689     0.03400
C1399       C  0.07711743  0.74371415  0.70463827     0.38100
C1400       C  0.17435673  0.95200443  0.90355288     0.38100
C1401       C  0.14446211  0.84001862  0.89733706     0.36500
C1402       C  0.09781501  0.83491961  0.74999347     0.36500
N1403       N  0.13310963  0.81906111  0.86810606    -0.38300
N1404       N  0.07862458  0.82832503  0.78079432    -0.38300
N1405       N  0.18465451  0.98021952  0.87640394    -0.37800
N1406       N  0.04134458  0.70176673  0.71191116    -0.37800
C1407       C  0.16760570  0.66495840  0.75108593    -0.04500
C1408       C  0.17377748  0.61937819  0.74610022    -0.01600
C1409       C  0.13936132  0.56883294  0.76549336     0.03400
C1410       C  0.09709066  0.56175096  0.79059782    -0.04500
C1411       C  0.09006615  0.60719826  0.79475723    -0.01600
C1412       C  0.12557206  0.65826990  0.77617477     0.03400
C1413       C  0.19055306  0.62778244  0.97712457     0.38100
C1414       C  0.04709442  0.60240200  0.81897901     0.38100
C1415       C  0.12061074  0.70518863  0.78485032     0.36500
C1416       C  0.14897570  0.52409345  0.76162321     0.36500
N1417       N  0.11710849  0.74275885  0.79238376    -0.38300
N1418       N  0.11216502  0.48293168  0.98769508    -0.38300
N1419       N  0.01267864  0.59960268  0.83766852    -0.37800
N1420       N  0.22643777  0.63445503  0.95852420    -0.37800
C1421       C  0.31774990  0.83564361  0.95741117    -0.04500
C1422       C  0.35328999  0.81665291  0.95240730    -0.01600
C1423       C  0.40450376  0.85172862  0.93696923     0.03400
C1424       C  0.41884329  0.90366073  0.91974957    -0.04500
C1425       C  0.38432865  0.92327638  0.92640006    -0.01600
C1426       C  0.33806881  0.89239434  0.94961903     0.03400
C1427       C  0.33778842  0.76089495  0.96147237     0.38100
C1428       C  0.39250930  0.97157280  0.90557837     0.38100
C1429       C  0.31941103  0.92132529  0.70342426     0.36500
C1430       C  0.44121500  0.83222192  0.93610200     0.36500
N1431       N  0.29309704  0.93883887  0.71293428    -0.38300
N1432       N  0.47056841  0.81684165  0.93343841    -0.38300
N1433       N  0.39827270  0.00904174  0.88773321    -0.37800
N1434       N  0.32686480  0.71659897  0.96852532    -0.37800
C1435       C  0.37016325  0.16007080  0.78595729    -0.04500
C1436       C  0.33042560  0.16457991  0.02067938    -0.01600
C1437       C  0.28245525  0.15637296  0.03489538     0.03400
C1438       C  0.26447232  0.11093256  0.80656274    -0.04500
C1439       C  0.30034688  0.14192557  0.83357135    -0.01600
C1440       C  0.35328625  0.16739786  0.82293749     0.03400
C1441       C  0.33729081  0.15355214  0.98061822     0.38100
C1442       C  0.28282192  0.14980090  0.87147893     0.38100
C1443       C  0.38928433  0.20330672  0.84956370     0.36500
C1444       C  0.24580731  0.15400451  0.00770096     0.36500
N1445       N  0.41480109  0.23248532  0.87223679    -0.38300
N1446       N  0.21851428  0.15461513  0.98510336    -0.38300
N1447       N  0.26831210  0.15670260  0.90126239    -0.37800
N1448       N  0.34351330  0.14419590  0.94902895    -0.37800
C1449       C  0.51429040  0.05868903  0.81900637    -0.04500
C1450       C  0.49984350  0.05838138  0.78008129    -0.01600
C1451       C  0.50933687  0.10645170  0.75970232     0.03400
C1452       C  0.53032145  0.15621701  0.77791211    -0.04500
C1453       C  0.54859337  0.15820147  0.81498696    -0.01600
C1454       C  0.53646505  0.11001126  0.83675628     0.03400
C1455       C  0.46761604  0.00772953  0.76263260     0.38100
C1456       C  0.58040620  0.21093896  0.83039924     0.38100
C1457       C  0.54281333  0.11480058  0.87798370     0.36500
C1458       C  0.49351937  0.10470032  0.72044699     0.36500
N1459       N  0.54756220  0.12079929  0.91091542    -0.38300
N1460       N  0.48158975  0.10503745  0.68910974    -0.38300
N1461       N  0.60670624  0.25321882  0.84218610    -0.37800
N1462       N  0.44116851  0.96693069  0.74919620    -0.37800
C1463       C  0.51149749  0.29975606  0.95125587    -0.04500
C1464       C  0.51551862  0.29278027  0.91128367    -0.01600
C1465       C  0.51675200  0.33114959  0.88352494     0.03400
C1466       C  0.50931934  0.37473206  0.89543019    -0.04500
C1467       C  0.50711673  0.38243082  0.93528037    -0.01600
C1468       C  0.51144400  0.34747909  0.96255045     0.03400
C1469       C  0.51045182  0.24210091  0.89906268     0.38100
C1470       C  0.49500108  0.42330979  0.94779334     0.38100
C1471       C  0.46997032  0.33936801  0.75127631     0.36500
C1472       C  0.52619810  0.32526180  0.84303540     0.36500
N1473       N  0.45408542  0.33380551  0.78293644    -0.38300
N1474       N  0.53601692  0.32007815  0.81122763    -0.38300
N1475       N  0.43661940  0.42814034  0.70361471    -0.37800
N1476       N  0.50313823  0.19982057  0.89070095    -0.37800
C1477       C  0.17619531  0.36805430  0.07712625    -0.04500
C1478       C  0.12241566  0.33798794  0.07177348    -0.01600
C1479       C  0.09397651  0.28475839  0.08671499     0.03400
C1480       C  0.11460496  0.26502833  0.11443255    -0.04500
C1481       C  0.12956783  0.25181411  0.87718451    -0.01600
C1482       C  0.14990440  0.30461845  0.86075807     0.03400
C1483       C  0.09542635  0.35814663  0.04883464     0.38100
C1484       C  0.15245255  0.24177821  0.91020490     0.38100
C1485       C  0.19282717  0.34947088  0.87803734     0.36500
C1486       C  0.05012512  0.24780597  0.06562514     0.36500
N1487       N  0.22815133  0.38521607  0.89088963    -0.38300
N1488       N  0.01773972  0.21934830  0.04630981    -0.38300
N1489       N  0.17060991  0.23387179  0.93670897    -0.37800
N1490       N  0.07222369  0.37252234  0.03084964    -0.37800
C1491       C  0.30884511  0.40280812  0.76339026    -0.04500
C1492       C  0.35162610  0.45518870  0.76456224    -0.01600
C1493       C  0.39987026  0.46343081  0.77724901     0.03400
C1494       C  0.40409407  0.42088700  0.79687845    -0.04500
C1495       C  0.36040718  0.36772908  0.79413262    -0.01600
C1496       C  0.31635092  0.35923231  0.77412750     0.03400
C1497       C  0.34503136  0.50123107  0.75574829     0.38100
C1498       C  0.35680945  0.32002627  0.81227572     0.38100
C1499       C  0.27639077  0.30458660  0.76647731     0.36500
C1500       C  0.44442525  0.51697888  0.77098759     0.36500
N1501       N  0.24456829  0.26116592  0.76042331    -0.38300
N1502       N  0.47943317  0.56006943  0.76625296    -0.38300
N1503       N  0.35021365  0.27986648  0.82636846    -0.37800
N1504       N  0.33940607  0.53797856  0.74953762    -0.37800
C1505       C  0.11472615  0.45332036  0.90001217    -0.04500
C1506       C  0.16420554  0.49932302  0.90727353    -0.01600
C1507       C  0.20171681  0.49419790  0.92877320     0.03400
C1508       C  0.19018713  0.44461214  0.94681978    -0.04500
C1509       C  0.14069373  0.39946667  0.94148296    -0.01600
C1510       C  0.10307399  0.40408098  0.91999601     0.03400
C1511       C  0.17555147  0.55361038  0.89638435     0.38100
C1512       C  0.12795278  0.34725037  0.95875138     0.38100
C1513       C  0.05064342  0.35922335  0.92295455     0.36500
C1514       C  0.21702294  0.50121432  0.68992832     0.36500
N1515       N  0.00893005  0.32311578  0.92602606    -0.38300
N1516       N  0.25823106  0.53554587  0.69517658    -0.38300
N1517       N  0.11775378  0.30560701  0.97246188    -0.37800
N1518       N  0.18416032  0.59641639  0.88643833    -0.37800
C1519       C  0.81966447  0.08372993  0.81292368    -0.04500
C1520       C  0.78989723  0.02619591  0.81472171    -0.01600
C1521       C  0.80602566  0.99479805  0.83610522     0.03400
C1522       C  0.85178523  0.01980823  0.85692368    -0.04500
C1523       C  0.87890802  0.07660511  0.85763029    -0.01600
C1524       C  0.86648323  0.10785507  0.83303368     0.03400
C1525       C  0.74163174  0.00482913  0.02518577     0.38100
C1526       C  0.91652934  0.10368073  0.88648695     0.38100
C1527       C  0.90403651  0.16512386  0.82821698     0.36500
C1528       C  0.77300638  0.93637233  0.83788219     0.36500
N1529       N  0.93362463  0.21085629  0.82532463    -0.38300
N1530       N  0.75109838  0.92091083  0.09439954    -0.38300
N1531       N  0.94496979  0.12563514  0.91032162    -0.37800
N1532       N  0.70325084  0.97329090  0.01273903    -0.37800
C1533       C  0.95280352  0.36473121  0.81750469    -0.04500
C1534       C  0.91016805  0.33586237  0.84423143    -0.01600
C1535       C  0.86393690  0.28990413  0.83325527     0.03400
C1536       C  0.85976918  0.26852014  0.79576654    -0.04500
C1537       C  0.90562166  0.29310559  0.77115048    -0.01600
C1538       C  0.95079228  0.34130417  0.78144308     0.03400
C1539       C  0.91599550  0.35061958  0.88433006     0.38100
C1540       C  0.83498615  0.31931834  0.98097406     0.38100
C1541       C  0.99673086  0.36654389  0.75591620     0.36500
C1542       C  0.82345844  0.26021955  0.86269414     0.36500
N1543       N  0.95833996  0.44377400  0.98295536    -0.38300
N1544       N  0.79280431  0.23487072  0.88697961    -0.38300
N1545       N  0.81723766  0.32190005  0.95243705    -0.37800
N1546       N  0.92229783  0.36244496  0.91628590    -0.37800
C1547       C  0.67744153  0.10957326  0.96607261    -0.04500
C1548       C  0.64160244  0.05517640  0.97786845    -0.01600
C1549       C  0.60356283  0.01959219  0.95308955     0.03400
C1550       C  0.60009653  0.03697013  0.91555136    -0.04500
C1551       C  0.63521827  0.09169893  0.90399602    -0.01600
C1552       C  0.66924319  0.12851776  0.93064639     0.03400
C1553       C  0.65725863  0.04478061  0.77106537     0.38100
C1554       C  0.64048993  0.10993659  0.86397282     0.38100
C1555       C  0.68949251  0.18580247  0.92401228     0.36500
C1556       C  0.57069054  0.96344852  0.96488801     0.36500
N1557       N  0.70293419  0.23130767  0.91952936    -0.38300
N1558       N  0.55338044  0.93551058  0.72761122    -0.38300
N1559       N  0.64646029  0.12591925  0.83215123    -0.37800
N1560       N  0.65214980  0.02972402  0.80301958    -0.37800
loop_ 
_geom_bond_atom_site_label_1 
_geom_bond_atom_site_label_2 
_geom_bond_distance 
_geom_bond_site_symmetry_2 
_ccdc_geom_bond_type 
C1            C2   1.441       .  A
C1            C6   1.412       .  A
C1          C377   1.525       .  S
C2          C393   1.433       .  A
C2            H7   1.082       .  S
C3            C4   1.389       .  A
C3         C1172   1.438       .  A
C3          C366   1.537       .  S
C4            C5   1.396       .  A
C4            H8   1.078       .  S
C5         C1176   1.399   1_554  A
C5          C349   1.509       .  S
C6          C395   1.399       .  A
C6            H9   1.081       .  S
C10          C11   1.396       .  A
C10         C405   1.439       .  A
C10         C338   1.528       .  S
C11         C402   1.392       .  A
C11          H16   1.076       .  S
C12          C13   1.407       .  A
C12        C1181   1.406       .  A
C12        C1477   1.516       .  S
C13          C14   1.396       .  A
C13          H17   1.077       .  S
C14          C15   1.432   1_554  A
C14         C321   1.525       .  S
C15        C1180   1.432       .  A
C15          H18   1.081       .  S
C19          C24   1.401       .  A
C19        C1190   1.435   1_554  A
C19         C282   1.511       .  S
C20          C21   1.445       .  A
C20         C409   1.441       .  A
C20          H25   1.080       .  S
C21          C22   1.402       .  A
C21         C293   1.545       .  S
C22         C413   1.390       .  A
C22          H26   1.084       .  S
C23          C24   1.387       .  A
C23        C1192   1.390       .  A
C23         C265   1.476       .  S
C24          H27   1.085       .  S
C28          C29   1.435       .  A
C28          C33   1.403       .  A
C28         C251   1.539       .  S
C29         C420   1.429       .  A
C29          H34   1.078       .  S
C30          C31   1.407       .  A
C30        C1199   1.445       .  A
C30         C237   1.533   1_556  S
C31          C32   1.391       .  A
C31          H35   1.082       .  S
C32        C1203   1.384       .  A
C32        C1393   1.476       .  S
C33         C422   1.395       .  A
C33          H36   1.077       .  S
C37          C42   1.400       .  A
C37         C428   1.446       .  A
C37         C212   1.537       .  S
C38          C39   1.439       .  A
C38        C1207   1.439       .  A
C38          H43   1.082       .  S
C39          C40   1.400       .  A
C39         C195   1.522   1_556  S
C40          C41   1.389       .  A
C40          H44   1.085       .  S
C41        C1212   1.389       .  A
C41         C181   1.472       .  S
C42         C431   1.382       .  A
C42          H45   1.084       .  S
C46          C51   1.387       .  A
C46        C1217   1.442       .  A
C46         C156   1.519   1_556  S
C47          C48   1.451       .  A
C47         C436   1.439       .  A
C47          H52   1.081       .  S
C48          C49   1.410       .  A
C48         C167   1.547       .  S
C49          C50   1.393       .  A
C49          H53   1.079       .  S
C50         C441   1.380       .  A
C50         C139   1.477       .  S
C51        C1220   1.379       .  A
C51          H54   1.087       .  S
O55         Mg57   2.137       .  S
O55       Mg1233   2.118   1_565  S
O55          C90   1.241       .  S
C56          H95   1.080       .  S
C56          O69   1.235       .  S
C56          O93   1.270       .  A
Mg57       O1256   2.122   1_554  S
Mg57         O97   2.239   1_554  S
Mg57         O68   2.287   1_455  S
Mg57       O1271   2.228   1_554  S
O58         Mg83   2.143       .  S
O58       Mg1270   2.156   1_455  S
O58          C79   1.237       .  S
O59          C90   1.279   1_545  A
O59         Mg83   2.347       .  S
C60         C142   1.457       .  S
C60          O62   1.256       .  A
C60          O74   1.273       .  A
O61          C89   1.271       .  A
O61         Mg63   2.302       .  S
O62         Mg94   2.151       .  S
Mg63         O69   2.155       .  S
Mg63        O445   2.103       .  S
Mg63         O77   2.333       .  S
Mg63        O455   2.214       .  S
C64         C352   1.501       .  S
C64         O102   1.261   1_545  A
C64          O70   1.281       .  A
O65          C72   1.257       .  A
O65       Mg1233   2.214       .  S
H66          C79   1.078       .  S
C67          H92   1.081       .  S
C67          O81   1.234       .  S
C67          O82   1.266       .  A
O68          C91   1.267       .  A
O69        Mg473   2.147       .  S
O70       Mg1270   2.303       .  S
C71         C310   1.475       .  S
C71          O84   1.273       .  A
C71          O76   1.271       .  A
C72         C268   1.471       .  S
C72          O99   1.265       .  A
Mg73         O80   2.099       .  S
Mg73         O75   2.294       .  S
Mg73        O102   2.276       .  S
Mg73       O1244   2.304       .  S
Mg73       O1251   2.246   1_565  S
O74        Mg463   2.319       .  S
O75          C79   1.272   1_665  A
O76        Mg473   2.284       .  S
O77          C96   1.270   1_545  A
O78          C98   1.267       .  A
O78       Mg1264   2.259       .  S
O80       Mg1264   2.169   1_554  S
O80          C91   1.235       .  S
O81        Mg100   2.124   1_655  S
O81        Mg463   2.192   1_545  S
O82         Mg94   2.283   1_545  S
Mg83       O1239   2.137       .  S
Mg83         O99   2.310       .  S
Mg83       O1246   2.255       .  S
O84        Mg100   2.268       .  S
H85          C90   1.081       .  S
O86         Mg94   2.039   1_455  S
O86        Mg447   2.107       .  S
O86          C89   1.236   1_565  S
H87          C89   1.079   1_565  S
H88          C91   1.081       .  S
O93        Mg100   2.312       .  S
Mg94        O470   2.152       .  S
Mg94        O468   2.237       .  S
C96         C226   1.461       .  S
C96         O101   1.249       .  A
O97          C98   1.267   1_455  A
C98         C184   1.470       .  S
Mg100       O448   2.148       .  S
Mg100       O460   2.263   1_455  S
O101       Mg447   2.235       .  S
C103        C104   1.518       .  S
C103        C109   1.559       .  S
C103        C107   1.549       .  S
C103        C335   1.605       .  S
C104        H111   1.083       .  S
C104        C105   1.356       .  D
C105        C106   1.574   1_455  S
C105        C240   1.529       .  S
C106        C110   1.569       .  S
C106        C108   1.547       .  S
C106        H112   1.108       .  S
C107        H113   1.075       .  S
C107        C108   1.383   1_455  D
C108        C209   1.542       .  S
C109        H114   1.080       .  S
C109        C110   1.388   1_455  D
C110        C363   1.538       .  S
C115        C116   1.506       .  S
C115        C121   1.566       .  S
C115        C119   1.557       .  S
C115        C153   1.593       .  S
C116        H123   1.083       .  S
C116        C117   1.353       .  D
C117        C118   1.572       .  S
C117        C254   1.528       .  S
C118        C122   1.546       .  S
C118        C120   1.566       .  S
C118        H124   1.102   1_565  S
C119        H125   1.081       .  S
C119        C120   1.393       .  D
C120        C279   1.545   1_565  S
C121        H126   1.081       .  S
C121        C122   1.371       .  D
C122        C380   1.525   1_565  S
C127        C128   1.525       .  S
C127        C133   1.562       .  S
C127        C131   1.542       .  S
C127        C324   1.599       .  S
C128        H135   1.080       .  S
C128        C129   1.358       .  D
C129        C130   1.582       .  S
C129        C170   1.544       .  S
C130        C134   1.557       .  S
C130        C132   1.569       .  S
C130        H136   1.101       .  S
C131        H137   1.071       .  S
C131        C132   1.383       .  D
C132        C198   1.559       .  S
C133        H138   1.079       .  S
C133        C134   1.378       .  D
C134        C296   1.529       .  S
C139        C140   1.411       .  A
C139        C534   1.424       .  A
C140        C141   1.407       .  A
C140        C145   1.450       .  S
C141        C142   1.410       .  A
C141        C148   1.451       .  S
C142        C533   1.402       .  A
C143        C144   1.395       .  A
C143       C1312   1.401       .  A
C143        C146   1.456   1_556  S
C144       C1309   1.423       .  A
C144        C147   1.454       .  S
C145        N152   1.157       .  T
C146        N151   1.157       .  T
C147        N149   1.158   1_556  T
C148        N150   1.157   1_565  T
C153        C154   1.440       .  A
C153        C158   1.433       .  A
C154        C155   1.431       .  A
C154        C159   1.446       .  S
C155        C156   1.399       .  A
C155       C1332   1.444       .  S
C156        C157   1.415       .  A
C157        C158   1.423       .  A
C157        C160   1.450       .  S
C158        C161   1.447       .  S
C159        N166   1.156       .  T
C160        N165   1.157       .  T
C161        N163   1.157       .  T
C162        C545   1.444       .  S
C162        N164   1.157       .  T
C167        C168   1.440       .  A
C167        C172   1.414       .  A
C168        C169   1.427       .  A
C168        C173   1.451       .  S
C169        C170   1.413       .  A
C169        C176   1.450       .  S
C170        C171   1.435       .  A
C171        C172   1.424       .  A
C171        C174   1.451       .  S
C172        C175   1.449       .  S
C173        N570   1.158       .  T
C174        N179   1.158       .  T
C175        N177   1.157       .  T
C176        N178   1.157       .  T
N180       C1343   1.158       .  T
C181        C182   1.408       .  A
C181        C186   1.409       .  A
C182        C183   1.402       .  A
C182       C1357   1.451   1_556  S
C183        C184   1.415       .  A
C183       C1360   1.455   1_656  S
C184        C185   1.414       .  A
C185        C186   1.406       .  A
C185        C188   1.450       .  S
C186        C189   1.451       .  S
C187        C572   1.451       .  S
C187        N194   1.157       .  T
C188        N193   1.157       .  T
C189        N191   1.157       .  T
C190        C573   1.452       .  S
C190        N192   1.157       .  T
C195        C196   1.412       .  A
C195        C200   1.412   1_554  A
C196        C197   1.434       .  A
C196        C201   1.449       .  S
C197        C198   1.435       .  A
C197        C204   1.446       .  S
C198        C199   1.430       .  A
C199        C200   1.421   1_554  A
C199        C202   1.448   1_554  S
C200       C1373   1.451       .  S
C201        N208   1.157       .  T
C202        N207   1.156       .  T
C203        C590   1.451       .  S
C203        N205   1.157       .  T
C204        N206   1.158       .  T
C209        C210   1.432       .  A
C209        C214   1.415       .  A
C210        C211   1.432       .  A
C210        C215   1.443       .  S
C211        C212   1.413       .  A
C211        C218   1.450       .  S
C212        C213   1.429       .  A
C213        C214   1.417       .  A
C213        C606   1.454       .  S
C214        C217   1.451   1_655  S
C215        N222   1.156       .  T
C216       C1383   1.443       .  S
C216        N221   1.154   1_556  T
C217        N609   1.157       .  T
C218        N220   1.158       .  T
N219       C1387   1.156       .  T
C223        C228   1.416       .  A
C223        C614   1.417       .  A
C223        C422   1.500       .  S
C224        C225   1.407       .  A
C224       C1393   1.420   1_554  A
C224        C229   1.452       .  S
C225       C1396   1.409   1_554  A
C225        C232   1.451       .  S
C226        C227   1.410       .  A
C226        C615   1.409       .  A
C227        C228   1.411       .  A
C227        C230   1.452       .  S
C228        C231   1.447       .  S
C229        N236   1.157       .  T
C230        N235   1.157   1_565  T
C231        N233   1.156       .  T
C232        N234   1.157       .  T
C237        C238   1.413       .  A
C237        C242   1.427       .  A
C238        C239   1.422       .  A
C238       C1413   1.441   1_554  S
C239        C240   1.421       .  A
C239        C246   1.447   1_554  S
C240        C241   1.415       .  A
C241        C242   1.427       .  A
C241        C244   1.446       .  S
C242        C245   1.451       .  S
C243        C628   1.444       .  S
C243        N250   1.155       .  T
C244        N249   1.156   1_455  T
C245        N247   1.157       .  T
C246       N1418   1.155       .  T
N248        C636   1.154       .  T
C251        C252   1.418       .  A
C251        C256   1.436       .  A
C252        C253   1.423       .  A
C252        C257   1.447       .  S
C253        C254   1.431       .  A
C253        C260   1.452       .  S
C254        C255   1.407       .  A
C255        C256   1.416       .  A
C255        C258   1.448       .  S
C256        C649   1.455       .  S
C257        N264   1.158       .  T
C258        N263   1.157   1_565  T
C259       C1426   1.449       .  S
C259        N261   1.157       .  T
C260        N262   1.157       .  T
C265        C270   1.414       .  A
C265       C1436   1.408       .  A
C266        C267   1.397       .  A
C266        C655   1.402       .  A
C266        C271   1.453       .  S
C267        C658   1.414       .  A
C267        C274   1.449       .  S
C268        C269   1.403       .  A
C268       C1437   1.410       .  A
C269        C270   1.410       .  A
C269        C272   1.446       .  S
C270        C273   1.445       .  S
C271        N278   1.157       .  T
C272        N277   1.156       .  T
C273        N275   1.155       .  T
C274        N276   1.157       .  T
C279        C280   1.423       .  A
C279        C284   1.430       .  A
C280        C281   1.424       .  A
C280        C285   1.443   1_545  S
C281        C282   1.412       .  A
C281        C288   1.448   1_554  S
C282        C283   1.404       .  A
C283        C284   1.423       .  A
C283        C286   1.448       .  S
C284        C287   1.445       .  S
C285        N292   1.154       .  T
C286        N291   1.157       .  T
C287        N289   1.158       .  T
C288        N290   1.156       .  T
C293        C294   1.412       .  A
C293        C298   1.427       .  A
C294        C295   1.435       .  A
C294        C299   1.444       .  S
C295        C296   1.430       .  A
C295        C302   1.445       .  S
C296        C297   1.403       .  A
C297        C298   1.416       .  A
C297        C300   1.448       .  S
C298        C691   1.436       .  S
C299        N306   1.156       .  T
C300        N695   1.155       .  T
C301       C1468   1.434   1_554  S
C301        N303   1.151       .  T
C302        N304   1.158       .  T
N305       C1470   1.155       .  T
C307        C308   1.413       .  A
C307        C702   1.410       .  A
C307        C402   1.503       .  S
C308        C309   1.393       .  A
C308        C313   1.448       .  S
C309        C310   1.408       .  A
C309        C316   1.448       .  S
C310        C701   1.415       .  A
C311        C312   1.413       .  A
C311       C1480   1.411       .  A
C311        C314   1.452       .  S
C312       C1477   1.424       .  A
C312        C315   1.451       .  S
C313        N320   1.157       .  T
C314        N319   1.157       .  T
C315        N317   1.157       .  T
C316        N318   1.155       .  T
C321        C322   1.409       .  A
C321        C326   1.417       .  A
C322        C323   1.424       .  A
C322        C327   1.449       .  S
C323        C324   1.439       .  A
C323        C330   1.451       .  S
C324        C325   1.432       .  A
C325        C326   1.431       .  A
C325        C328   1.441       .  S
C326        C329   1.452       .  S
C327        N334   1.157       .  T
C328        N333   1.156       .  T
C329        N331   1.157   1_554  T
C330        N332   1.157       .  T
C335        C336   1.448       .  A
C335        C340   1.429       .  A
C336        C337   1.429       .  A
C336        C341   1.451       .  S
C337        C338   1.403       .  A
C337        C734   1.450       .  S
C338        C339   1.422       .  A
C339        C340   1.433       .  A
C339        C342   1.452       .  S
C340        C343   1.445       .  S
C341        N348   1.158       .  T
C342        N347   1.157       .  T
C343        N345   1.157       .  T
C344       C1507   1.450       .  S
C344        N346   1.157       .  T
C349        C350   1.416       .  A
C349        C354   1.410       .  A
C350        C351   1.416       .  A
C350       C1525   1.448       .  S
C351        C352   1.430       .  A
C351        C358   1.453   1_545  S
C352        C353   1.406       .  A
C353        C354   1.401       .  A
C353        C356   1.445       .  S
C354        C357   1.452       .  S
C355        C740   1.448       .  S
C355        N362   1.157   1_545  T
C356        N361   1.157       .  T
C357        N359   1.157   1_554  T
C358       N1530   1.158       .  T
N360        C748   1.157       .  T
C363        C364   1.418       .  A
C363        C368   1.420       .  A
C364        C365   1.423       .  A
C364        C369   1.450       .  S
C365        C366   1.431       .  A
C365        C372   1.453       .  S
C366        C367   1.415       .  A
C367        C368   1.434       .  A
C367       C1540   1.446   1_554  S
C368        C371   1.440       .  S
C369        N376   1.157       .  T
C370        C757   1.446       .  S
C370        N375   1.157       .  T
C371       N1543   1.154   1_554  T
C372        N374   1.157       .  T
N373        C761   1.150       .  T
C377        C378   1.422       .  A
C377        C382   1.411       .  A
C378        C379   1.420       .  A
C378        C773   1.445       .  S
C379        C380   1.408       .  A
C379        C386   1.445   1_545  S
C380        C381   1.424       .  A
C381        C382   1.427       .  A
C381        C384   1.447       .  S
C382        C385   1.448       .  S
C383       C1548   1.441   1_554  S
C383        N390   1.154       .  T
C384        N389   1.157       .  T
C385        N387   1.158       .  T
C386        N778   1.155       .  T
N388       C1556   1.155       .  T
C391        C392   1.435       .  A
C391        C396   1.410       .  A
C391        C767   1.515       .  S
C392        C783   1.428       .  A
C392        H397   1.082       .  S
C393        C394   1.389       .  A
C393        C756   1.527       .  S
C394        C395   1.397       .  A
C394        H398   1.081       .  S
C395        C739   1.505       .  S
C396        C785   1.397       .  A
C396        H399   1.082       .  S
C400        C401   1.400       .  A
C400        C795   1.435       .  A
C400        C728   1.527       .  S
C401        C792   1.401       .  A
C401        H406   1.075       .  S
C402        C403   1.410       .  A
C403        C404   1.395       .  A
C403        H407   1.079       .  S
C404        C405   1.437       .  A
C404        C711   1.538       .  S
C405        H408   1.076       .  S
C409        C414   1.398       .  A
C409        C672   1.517       .  S
C410        C799   1.439       .  A
C410        C411   1.441       .  A
C410        H415   1.081       .  S
C411        C412   1.402       .  A
C411        C683   1.541       .  S
C412        C803   1.391       .  A
C412        H416   1.085       .  S
C413        C414   1.383       .  A
C413        C655   1.472       .  S
C414        H417   1.085       .  S
C418        C419   1.438       .  A
C418        C423   1.397       .  A
C418        C641   1.540       .  S
C419        C810   1.438       .  A
C419        H424   1.081       .  S
C420        C421   1.402       .  A
C420        C627   1.511       .  S
C421        C422   1.396       .  A
C421        H425   1.083       .  S
C423        C812   1.394       .  A
C423        H426   1.075       .  S
C427        C818   1.442       .  A
C427        C432   1.398       .  A
C427        C602   1.527       .  S
C428        C429   1.440       .  A
C428        H433   1.080       .  S
C429        C430   1.399       .  A
C429        C585   1.521       .  S
C430        C431   1.386       .  A
C430        H434   1.085       .  S
C431        C571   1.466       .  S
C432        C821   1.383       .  A
C432        H435   1.086       .  S
C436        C441   1.392       .  A
C436        C546   1.519       .  S
C437        C826   1.441       .  A
C437        C438   1.452       .  A
C437        H442   1.081       .  S
C438        C439   1.409       .  A
C438        C557   1.549       .  S
C439        C440   1.393       .  A
C439        H443   1.078       .  S
C440        C831   1.378       .  A
C440        C529   1.471       .  S
C441        H444   1.086       .  S
O445       Mg447   2.090   1_545  S
O445        C480   1.239       .  S
C446        H485   1.081       .  S
C446        O459   1.237       .  S
C446        O483   1.274       .  A
Mg447       O487   2.228       .  S
Mg447       O458   2.283       .  S
O448       Mg473   2.171       .  S
O448        C469   1.238       .  S
O449        C480   1.274       .  A
O449       Mg473   2.319       .  S
C450        C532   1.445       .  S
C450        O452   1.257       .  A
C450        O464   1.271       .  A
O451        C479   1.272   1_545  A
O451       Mg453   2.312       .  S
O452       Mg484   2.143       .  S
Mg453       O835   2.107   1_545  S
Mg453       O459   2.165       .  S
Mg453       O467   2.328       .  S
Mg453       O845   2.225       .  S
C454        C742   1.504       .  S
C454        O492   1.256       .  A
C454        O460   1.277       .  A
O455        C462   1.256       .  A
H456        C469   1.080       .  S
C457        H482   1.080       .  S
C457        O471   1.235       .  S
C457        O472   1.265       .  A
O458        C481   1.270   1_455  A
O459       Mg863   2.147       .  S
C461        C700   1.471       .  S
C461        O474   1.272       .  A
C461        O466   1.271       .  A
C462        C658   1.462       .  S
C462        O489   1.268       .  A
Mg463       O470   2.106       .  S
Mg463       O465   2.325   1_565  S
Mg463       O492   2.262   1_565  S
O464       Mg853   2.288       .  S
O465        C469   1.277   1_655  A
O466       Mg863   2.288       .  S
O467        C486   1.268   1_545  A
O468        C488   1.263       .  A
O470        C481   1.237       .  S
O471       Mg853   2.201   1_545  S
O471       Mg490   2.113   1_655  S
O472       Mg484   2.270   1_545  S
Mg473       O489   2.313       .  S
O474       Mg490   2.253       .  S
H475        C480   1.081   1_565  S
O476       Mg837   2.107       .  S
O476       Mg484   2.051   1_455  S
O476        C479   1.236       .  S
H477        C479   1.079       .  S
H478        C481   1.076       .  S
O483       Mg490   2.327       .  S
Mg484       O860   2.168       .  S
Mg484       O858   2.242       .  S
C486        C616   1.464       .  S
C486        O491   1.250       .  A
O487        C488   1.263   1_455  A
C488        C574   1.458       .  S
Mg490       O838   2.130       .  S
Mg490       O850   2.273   1_455  S
O491       Mg837   2.234       .  S
C493        C494   1.521       .  S
C493        C499   1.555       .  S
C493        C497   1.562       .  S
C493        C725   1.604       .  S
C494        H501   1.086       .  S
C494        C495   1.347       .  D
C495        C496   1.570   1_455  S
C495        C630   1.520       .  S
C496        C500   1.570       .  S
C496        C498   1.545       .  S
C496        H502   1.099       .  S
C497        H503   1.072       .  S
C497        C498   1.393   1_455  D
C498        C599   1.562       .  S
C499        H504   1.079       .  S
C499        C500   1.385   1_455  D
C500        C753   1.535       .  S
C505        C506   1.509       .  S
C505        C511   1.561       .  S
C505        C509   1.551       .  S
C505        C543   1.587       .  S
C506        H513   1.082       .  S
C506        C507   1.353       .  D
C507        C508   1.585       .  S
C507        C644   1.545       .  S
C508        C512   1.547       .  S
C508        C510   1.572       .  S
C508        H514   1.103   1_565  S
C509        H515   1.083       .  S
C509        C510   1.394       .  D
C510        C669   1.548   1_565  S
C511        H516   1.083       .  S
C511        C512   1.367       .  D
C512        C770   1.520   1_565  S
C517        C518   1.526       .  S
C517        C523   1.571       .  S
C517        C521   1.556       .  S
C517        C714   1.612       .  S
C518        H525   1.083       .  S
C518        C519   1.359       .  D
C519        C520   1.582       .  S
C519        C560   1.541       .  S
C520        C524   1.550       .  S
C520        C522   1.558       .  S
C520        H526   1.105       .  S
C521        H527   1.079       .  S
C521        C522   1.387       .  D
C522        C588   1.551       .  S
C523        H528   1.076       .  S
C523        C524   1.378       .  D
C524        C686   1.531       .  S
C529        C530   1.413       .  A
C529        C924   1.426       .  A
C530        C531   1.404       .  A
C530        C535   1.449       .  S
C531        C532   1.405       .  A
C531        C538   1.450       .  S
C532        C923   1.397       .  A
C533        C534   1.400       .  A
C533        C536   1.456       .  S
C534        C537   1.454       .  S
C535        N542   1.158       .  T
C536        N541   1.157       .  T
C537        N539   1.158       .  T
C538        N540   1.157   1_565  T
C543        C544   1.437       .  A
C543        C548   1.429       .  A
C544        C545   1.432       .  A
C544        C549   1.445       .  S
C545        C546   1.400       .  A
C546        C547   1.414       .  A
C547        C548   1.418       .  A
C547        C550   1.449       .  S
C548        C551   1.443       .  S
C549        N556   1.156       .  T
C550        N555   1.156       .  T
C551        N553   1.155       .  T
C552        C935   1.442       .  S
C552        N554   1.156       .  T
C557        C558   1.442       .  A
C557        C562   1.416       .  A
C558        C559   1.426       .  A
C558        C563   1.451       .  S
C559        C560   1.411       .  A
C559        C566   1.451       .  S
C560        C561   1.433       .  A
C561        C562   1.427       .  A
C561        C564   1.451       .  S
C562        C565   1.449       .  S
C563        N960   1.158       .  T
C564        N569   1.158       .  T
C565        N567   1.157       .  T
C566        N568   1.157       .  T
C571        C572   1.412       .  A
C571        C576   1.408       .  A
C572        C573   1.406       .  A
C573        C574   1.408       .  A
C574        C575   1.410       .  A
C575        C576   1.400       .  A
C575        C578   1.453       .  S
C576        C579   1.452       .  S
C577        C962   1.444       .  S
C577        N584   1.155       .  T
C578        N583   1.157       .  T
C579        N581   1.157       .  T
C580        C963   1.454       .  S
C580        N582   1.157       .  T
C585        C586   1.404       .  A
C585        C590   1.419       .  A
C586        C587   1.425       .  A
C586        C591   1.447       .  S
C587        C588   1.431       .  A
C587        C594   1.444       .  S
C588        C589   1.423       .  A
C589        C590   1.426       .  A
C589        C592   1.443       .  S
C591        N598   1.158       .  T
C592        N597   1.154       .  T
C593        C980   1.450       .  S
C593        N595   1.156       .  T
C594        N596   1.158       .  T
C599        C600   1.447       .  A
C599        C604   1.420       .  A
C600        C601   1.436       .  A
C600        C605   1.443       .  S
C601        C602   1.405       .  A
C601        C608   1.444       .  S
C602        C603   1.406       .  A
C603        C604   1.414       .  A
C603        C996   1.435       .  S
C604        C607   1.449       .  S
C605        N612   1.157       .  T
C606        N611   1.157       .  T
C607        N999   1.157   1_655  T
C608        N610   1.155       .  T
C613       C1004   1.419       .  A
C613        C618   1.424       .  A
C613        C812   1.505       .  S
C614        C615   1.403       .  A
C614        C619   1.447       .  S
C615        C622   1.455       .  S
C616       C1005   1.408       .  A
C616        C617   1.405       .  A
C617        C618   1.412       .  A
C617        C620   1.451       .  S
C618        C621   1.451       .  S
C619        N626   1.157       .  T
C620        N625   1.158       .  T
C621        N623   1.157       .  T
C622        N624   1.156       .  T
C627        C628   1.406       .  A
C627        C632   1.408       .  A
C628        C629   1.423       .  A
C629        C630   1.422       .  A
C629        C636   1.442       .  S
C630        C631   1.418       .  A
C631        C632   1.418       .  A
C631        C634   1.444       .  S
C632        C635   1.447       .  S
C633       C1018   1.439       .  S
C633        N640   1.154       .  T
C634        N639   1.156       .  T
C635        N637   1.157       .  T
N638       C1026   1.154       .  T
C641        C642   1.412       .  A
C641        C646   1.432       .  A
C642        C643   1.427       .  A
C642        C647   1.447       .  S
C643        C644   1.439       .  A
C643        C650   1.452       .  S
C644        C645   1.411       .  A
C645        C646   1.421       .  A
C645        C648   1.445       .  S
C646       C1039   1.453       .  S
C647        N654   1.157       .  T
C648        N653   1.157   1_565  T
C649        N651   1.158       .  T
C650        N652   1.158       .  T
C655        C660   1.412       .  A
C656       C1045   1.407       .  A
C656        C657   1.399       .  A
C656        C661   1.453       .  S
C657       C1048   1.413       .  A
C657        C664   1.451       .  S
C658        C659   1.403       .  A
C659        C660   1.407       .  A
C659        C662   1.450       .  S
C660        C663   1.441       .  S
C661        N668   1.157       .  T
C662        N667   1.157       .  T
C663        N665   1.154       .  T
C664        N666   1.157       .  T
C669        C670   1.420       .  A
C669        C674   1.428       .  A
C670        C671   1.425       .  A
C670        C675   1.441   1_545  S
C671        C672   1.416       .  A
C671        C678   1.449       .  S
C672        C673   1.406       .  A
C673        C674   1.426       .  A
C673        C676   1.447       .  S
C674        C677   1.444       .  S
C675        N682   1.154       .  T
C676        N681   1.157       .  T
C677        N679   1.158       .  T
C678        N680   1.156       .  T
C683        C684   1.407       .  A
C683        C688   1.422       .  A
C684        C685   1.434       .  A
C684        C689   1.445       .  S
C685        C686   1.433       .  A
C685        C692   1.445       .  S
C686        C687   1.403       .  A
C687        C688   1.417       .  A
C687        C690   1.446       .  S
C688       C1081   1.431       .  S
C689        N696   1.156       .  T
C690       N1085   1.155       .  T
C691        N693   1.151       .  T
C692        N694   1.157       .  T
C697        C698   1.412       .  A
C697       C1092   1.417       .  A
C697        C792   1.504       .  S
C698        C699   1.390       .  A
C698        C703   1.446       .  S
C699        C700   1.405       .  A
C699        C706   1.449       .  S
C700       C1091   1.413       .  A
C701        C702   1.413       .  A
C701        C704   1.447       .  S
C702        C705   1.449       .  S
C703        N710   1.156       .  T
C704        N709   1.157       .  T
C705        N707   1.157       .  T
C706        N708   1.156       .  T
C711        C712   1.411       .  A
C711        C716   1.419       .  A
C712        C713   1.434       .  A
C712        C717   1.448       .  S
C713        C714   1.442       .  A
C713        C720   1.450       .  S
C714        C715   1.435       .  A
C715        C716   1.434       .  A
C715        C718   1.441       .  S
C716        C719   1.454       .  S
C717        N724   1.157       .  T
C718        N723   1.156       .  T
C719        N721   1.157       .  T
C720        N722   1.157       .  T
C725        C726   1.447       .  A
C725        C730   1.429       .  A
C726        C727   1.430       .  A
C726        C731   1.449       .  S
C727        C728   1.402       .  A
C727       C1124   1.449       .  S
C728        C729   1.417       .  A
C729        C730   1.431       .  A
C729        C732   1.449       .  S
C730        C733   1.443       .  S
C731        N738   1.158       .  T
C732        N737   1.156       .  T
C733        N735   1.156       .  T
C734        N736   1.157       .  T
C739        C740   1.412       .  A
C739        C744   1.408       .  A
C740        C741   1.414       .  A
C741        C742   1.431       .  A
C741        C748   1.451   1_545  S
C742        C743   1.410       .  A
C743        C744   1.404       .  A
C743        C746   1.443       .  S
C744        C747   1.450       .  S
C745       C1130   1.448       .  S
C745        N752   1.157   1_545  T
C746        N751   1.156       .  T
C747        N749   1.157       .  T
N750       C1138   1.157       .  T
C753        C754   1.417       .  A
C753        C758   1.413       .  A
C754        C755   1.423       .  A
C754        C759   1.448       .  S
C755        C756   1.429       .  A
C755        C762   1.452       .  S
C756        C757   1.413       .  A
C757        C758   1.427       .  A
C758        C761   1.431       .  S
C759        N766   1.156       .  T
C760       C1147   1.447       .  S
C760        N765   1.157       .  T
C762        N764   1.157       .  T
N763       C1151   1.149       .  T
C767        C768   1.417       .  A
C767        C772   1.408       .  A
C768        C769   1.419       .  A
C768       C1163   1.444       .  S
C769        C770   1.409       .  A
C769        C776   1.444   1_545  S
C770        C771   1.423       .  A
C771        C772   1.424       .  A
C771        C774   1.447       .  S
C772        C775   1.448       .  S
C773        N780   1.156       .  T
C774        N779   1.157       .  T
C775        N777   1.157       .  T
C776       N1168   1.155       .  T
C781        C782   1.443       .  A
C781        C786   1.419       .  A
C781       C1157   1.555       .  S
C782       C1173   1.437       .  A
C782        H787   1.079       .  S
C783        C784   1.390       .  A
C783       C1146   1.519       .  S
C784        C785   1.397       .  A
C784        H788   1.081       .  S
C785       C1129   1.503       .  S
C786       C1175   1.417       .  A
C786        H789   1.077       .  S
C790        C791   1.406       .  A
C790       C1185   1.429       .  A
C790       C1118   1.523       .  S
C791       C1182   1.403       .  A
C791        H796   1.078       .  S
C792        C793   1.405       .  A
C793        C794   1.388       .  A
C793        H797   1.079       .  S
C794        C795   1.426       .  A
C794       C1101   1.519       .  S
C795        H798   1.073       .  S
C799        C804   1.399       .  A
C799       C1062   1.516       .  S
C800       C1189   1.439       .  A
C800        C801   1.441       .  A
C800        H805   1.081       .  S
C801        C802   1.400       .  A
C801       C1073   1.536       .  S
C802       C1193   1.387       .  A
C802        H806   1.085       .  S
C803        C804   1.385       .  A
C803       C1045   1.479       .  S
C804        H807   1.085       .  S
C808        C809   1.438       .  A
C808        C813   1.396       .  A
C808       C1031   1.533       .  S
C809       C1200   1.436       .  A
C809        H814   1.082       .  S
C810        C811   1.404       .  A
C810       C1017   1.526       .  S
C811        C812   1.401       .  A
C811        H815   1.082       .  S
C813       C1202   1.398       .  A
C813        H816   1.075       .  S
C817       C1208   1.444       .  A
C817        C822   1.393       .  A
C817        C992   1.522       .  S
C818        C819   1.442       .  A
C818        H823   1.082       .  S
C819        C820   1.400       .  A
C819        C975   1.524       .  S
C820        C821   1.388       .  A
C820        H824   1.085       .  S
C821        C961   1.464       .  S
C822       C1211   1.372       .  A
C822        H825   1.086       .  S
C826        C831   1.388       .  A
C826        C936   1.511       .  S
C827       C1216   1.440       .  A
C827        C828   1.450       .  A
C827        H832   1.081       .  S
C828        C829   1.407       .  A
C828        C947   1.545       .  S
C829        C830   1.392       .  A
C829        H833   1.080       .  S
C830       C1221   1.377       .  A
C830        C919   1.468       .  S
C831        H834   1.087       .  S
O835       Mg837   2.107       .  S
O835        C870   1.239       .  S
C836        H875   1.081       .  S
C836        O849   1.235       .  S
C836        O873   1.274       .  A
Mg837       O877   2.222       .  S
Mg837       O848   2.283   1_455  S
O838       Mg863   2.161       .  S
O838        C859   1.235       .  S
O839        C870   1.273   1_545  A
O839       Mg863   2.313       .  S
C840        C922   1.434       .  S
C840        O842   1.260       .  A
C840        O854   1.268       .  A
O841        C869   1.273   1_545  A
O841       Mg843   2.311       .  S
O842       Mg874   2.155       .  S
Mg843       O849   2.164       .  S
Mg843       O857   2.339   1_545  S
Mg843      O1235   2.215       .  S
Mg843      O1225   2.167   1_545  S
C844       C1132   1.504       .  S
C844        O882   1.257       .  A
C844        O850   1.278       .  A
O845        C852   1.257       .  A
H846        C859   1.080       .  S
C847        H872   1.080       .  S
C847        O861   1.235   1_545  S
C847        O862   1.266   1_545  A
O848        C871   1.268       .  A
O849      Mg1253   2.147       .  S
C851       C1090   1.473       .  S
C851        O864   1.263       .  A
C851        O856   1.273       .  A
C852       C1048   1.465       .  S
C852        O879   1.268       .  A
Mg853       O860   2.111       .  S
Mg853       O855   2.312   1_565  S
Mg853       O882   2.269   1_565  S
O854      Mg1243   2.245       .  S
O855        C859   1.274   1_655  A
O856      Mg1253   2.317       .  S
O857        C876   1.265       .  A
O858        C878   1.264       .  A
O860        C871   1.235       .  S
O861      Mg1243   2.174       .  S
O861       Mg880   2.101   1_565  S
O862       Mg874   2.274       .  S
Mg863       O879   2.306       .  S
O864       Mg880   2.247   1_455  S
H865        C870   1.078       .  S
O866      Mg1227   2.105       .  S
O866       Mg874   2.059   1_455  S
O866        C869   1.234       .  S
H867        C869   1.076       .  S
H868        C871   1.080       .  S
O873       Mg880   2.348   1_455  S
Mg874      O1250   2.165       .  S
Mg874      O1248   2.240       .  S
C876       C1006   1.464       .  S
C876        O881   1.251       .  A
O877        C878   1.264   1_455  A
C878        C964   1.459       .  S
Mg880      O1228   2.119   1_655  S
Mg880      O1240   2.248       .  S
O881      Mg1227   2.242       .  S
C883        C884   1.530       .  S
C883        C889   1.559       .  S
C883        C887   1.568       .  S
C883       C1115   1.597       .  S
C884        H891   1.086       .  S
C884        C885   1.350       .  D
C885        C886   1.576   1_455  S
C885       C1020   1.529       .  S
C886        C890   1.551       .  S
C886        C888   1.553       .  S
C886        H892   1.101       .  S
C887        H893   1.078       .  S
C887        C888   1.391   1_455  D
C888        C989   1.555       .  S
C889        H894   1.075   1_455  S
C889        C890   1.374   1_455  D
C890       C1143   1.534       .  S
C895        C896   1.498       .  S
C895        C901   1.566       .  S
C895        C899   1.543       .  S
C895        C933   1.586       .  S
C896        H903   1.085       .  S
C896        C897   1.348       .  D
C897        C898   1.588   1_565  S
C897       C1034   1.537       .  S
C898        C902   1.573       .  S
C898        C900   1.585       .  S
C898        H904   1.107       .  S
C899        H905   1.081       .  S
C899        C900   1.389   1_565  D
C900       C1059   1.554       .  S
C901        H906   1.084       .  S
C901        C902   1.375   1_565  D
C902       C1160   1.549       .  S
C907        C908   1.519       .  S
C907        C913   1.571       .  S
C907        C911   1.548       .  S
C907       C1104   1.596       .  S
C908        H915   1.084       .  S
C908        C909   1.354       .  D
C909        C910   1.584       .  S
C909        C950   1.532       .  S
C910        C914   1.554       .  S
C910        C912   1.566       .  S
C910        H916   1.106       .  S
C911        H917   1.078       .  S
C911        C912   1.379       .  D
C912        C978   1.552       .  S
C913        H918   1.078       .  S
C913        C914   1.380       .  D
C914       C1076   1.531       .  S
C919        C920   1.413       .  A
C919       C1314   1.428       .  A
C920        C921   1.400       .  A
C920        C925   1.448       .  S
C921        C922   1.403       .  A
C921        C928   1.453       .  S
C922       C1313   1.394       .  A
C923        C924   1.395       .  A
C923        C926   1.456       .  S
C924        C927   1.454       .  S
C925        N932   1.157       .  T
C926        N931   1.157       .  T
C927        N929   1.158       .  T
C928        N930   1.157       .  T
C933        C934   1.440       .  A
C933        C938   1.424       .  A
C934        C935   1.428       .  A
C934        C939   1.447       .  S
C935        C936   1.397       .  A
C936        C937   1.414       .  A
C937        C938   1.418       .  A
C937        C940   1.448       .  S
C938        C941   1.439       .  S
C939        N946   1.156       .  T
C940        N945   1.157       .  T
C941        N943   1.154       .  T
C942       C1325   1.443       .  S
C942        N944   1.156       .  T
C947        C948   1.441       .  A
C947        C952   1.416       .  A
C948        C949   1.421       .  A
C948        C953   1.451       .  S
C949        C950   1.406       .  A
C949        C956   1.451       .  S
C950        C951   1.434       .  A
C951        C952   1.426       .  A
C951        C954   1.452       .  S
C952        C955   1.449       .  S
C953       N1350   1.158       .  T
C954        N959   1.158       .  T
C955        N957   1.157       .  T
C956        N958   1.157       .  T
C961        C962   1.409       .  A
C961        C966   1.407       .  A
C962        C963   1.402       .  A
C963        C964   1.408       .  A
C964        C965   1.410       .  A
C965        C966   1.399       .  A
C965        C968   1.447       .  S
C966        C969   1.453       .  S
C967       C1352   1.455       .  S
C967        N974   1.157       .  T
C968        N973   1.155       .  T
C969        N971   1.157       .  T
C970       C1353   1.451       .  S
C970        N972   1.156       .  T
C975        C976   1.409       .  A
C975        C980   1.419       .  A
C976        C977   1.428       .  A
C976        C981   1.449       .  S
C977        C978   1.429       .  A
C977        C984   1.442       .  S
C978        C979   1.427       .  A
C979        C980   1.427       .  A
C979        C982   1.449       .  S
C981        N988   1.157       .  T
C982        N987   1.156       .  T
C983       C1370   1.451       .  S
C983        N985   1.156       .  T
C984        N986   1.157       .  T
C989        C990   1.414       .  A
C989        C994   1.430       .  A
C990        C991   1.419       .  A
C990        C995   1.449       .  S
C991        C992   1.417       .  A
C991        C998   1.448       .  S
C992        C993   1.407       .  A
C993        C994   1.432       .  A
C993       C1386   1.449       .  S
C994        C997   1.431       .  S
C995       N1002   1.158       .  T
C996       N1001   1.151       .  T
C997       N1389   1.152       .  T
C998       N1000   1.157       .  T
C1003      C1394   1.405       .  A
C1003      C1008   1.423       .  A
C1003      C1202   1.508       .  S
C1004      C1005   1.403       .  A
C1004      C1009   1.449       .  S
C1005      C1012   1.453       .  S
C1006      C1395   1.408       .  A
C1006      C1007   1.408       .  A
C1007      C1008   1.414       .  A
C1007      C1010   1.450       .  S
C1008      C1011   1.450       .  S
C1009      N1016   1.157       .  T
C1010      N1015   1.157       .  T
C1011      N1013   1.157       .  T
C1012      N1014   1.156       .  T
C1017      C1018   1.403       .  A
C1017      C1022   1.411       .  A
C1018      C1019   1.427       .  A
C1019      C1020   1.423       .  A
C1019      C1026   1.439       .  S
C1020      C1021   1.421       .  A
C1021      C1022   1.426       .  A
C1021      C1024   1.450       .  S
C1022      C1025   1.437       .  S
C1023      C1408   1.443       .  S
C1023      N1030   1.155       .  T
C1024      N1029   1.158       .  T
C1025      N1027   1.153       .  T
N1028      C1416   1.154       .  T
C1031      C1032   1.406       .  A
C1031      C1036   1.434       .  A
C1032      C1033   1.417       .  A
C1032      C1037   1.445       .  S
C1033      C1034   1.435       .  A
C1033      C1040   1.451       .  S
C1034      C1035   1.413       .  A
C1035      C1036   1.428       .  A
C1035      C1038   1.447       .  S
C1036      C1429   1.451       .  S
C1037      N1044   1.156       .  T
C1038      N1043   1.157   1_565  T
C1039      N1041   1.157       .  T
C1040      N1042   1.156       .  T
C1045      C1050   1.414       .  A
C1046      C1435   1.405       .  A
C1046      C1047   1.394       .  A
C1046      C1051   1.455       .  S
C1047      C1438   1.413       .  A
C1047      C1054   1.450       .  S
C1048      C1049   1.405       .  A
C1049      C1050   1.408       .  A
C1049      C1052   1.450       .  S
C1050      C1053   1.444       .  S
C1051      N1058   1.157       .  T
C1052      N1057   1.157       .  T
C1053      N1055   1.155       .  T
C1054      N1056   1.157       .  T
C1059      C1060   1.429       .  A
C1059      C1064   1.431       .  A
C1060      C1061   1.422       .  A
C1060      C1065   1.440       .  S
C1061      C1062   1.409       .  A
C1061      C1068   1.452       .  S
C1062      C1063   1.406       .  A
C1063      C1064   1.432       .  A
C1063      C1066   1.447       .  S
C1064      C1067   1.443       .  S
C1065      N1072   1.153   1_545  T
C1066      N1071   1.158       .  T
C1067      N1069   1.157       .  T
C1068      N1070   1.156       .  T
C1073      C1074   1.407       .  A
C1073      C1078   1.422       .  A
C1074      C1075   1.433       .  A
C1074      C1079   1.445       .  S
C1075      C1076   1.432       .  A
C1075      C1082   1.446       .  S
C1076      C1077   1.406       .  A
C1077      C1078   1.416       .  A
C1077      C1080   1.445       .  S
C1078      C1471   1.437       .  S
C1079      N1086   1.155       .  T
C1080      N1475   1.155       .  T
C1081      N1083   1.150       .  T
C1082      N1084   1.157       .  T
C1087      C1088   1.420       .  A
C1087      C1482   1.423       .  A
C1087      C1182   1.514       .  S
C1088      C1089   1.402       .  A
C1088      C1093   1.444       .  S
C1089      C1090   1.407       .  A
C1089      C1096   1.453       .  S
C1090      C1481   1.405       .  A
C1091      C1092   1.414       .  A
C1091      C1094   1.449       .  S
C1092      C1095   1.450       .  S
C1093      N1100   1.156       .  T
C1094      N1099   1.157       .  T
C1095      N1097   1.157       .  T
C1096      N1098   1.157   1_455  T
C1101      C1102   1.407       .  A
C1101      C1106   1.415       .  A
C1102      C1103   1.423       .  A
C1102      C1107   1.450       .  S
C1103      C1104   1.442       .  A
C1103      C1110   1.453       .  S
C1104      C1105   1.433       .  A
C1105      C1106   1.430       .  A
C1105      C1108   1.444       .  S
C1106      C1109   1.452       .  S
C1107      N1114   1.157       .  T
C1108      N1113   1.158       .  T
C1109      N1111   1.157       .  T
C1110      N1112   1.157       .  T
C1115      C1116   1.441       .  A
C1115      C1120   1.433       .  A
C1116      C1117   1.426       .  A
C1116      C1121   1.448       .  S
C1117      C1118   1.402       .  A
C1117      C1514   1.448       .  S
C1118      C1119   1.414       .  A
C1119      C1120   1.427       .  A
C1119      C1122   1.454       .  S
C1120      C1123   1.440       .  S
C1121      N1128   1.157       .  T
C1122      N1127   1.158       .  T
C1123      N1125   1.155   1_455  T
C1124      N1126   1.157       .  T
C1129      C1130   1.416       .  A
C1129      C1134   1.407       .  A
C1130      C1131   1.415       .  A
C1131      C1132   1.429       .  A
C1131      C1138   1.452   1_545  S
C1132      C1133   1.407       .  A
C1133      C1134   1.402       .  A
C1133      C1136   1.439       .  S
C1134      C1137   1.450       .  S
C1135      C1520   1.450   1_565  S
C1135      N1142   1.158       .  T
C1136      N1141   1.155       .  T
C1137      N1139   1.157       .  T
N1140      C1528   1.158       .  T
C1143      C1144   1.414       .  A
C1143      C1148   1.411       .  A
C1144      C1145   1.420       .  A
C1144      C1149   1.445       .  S
C1145      C1146   1.427       .  A
C1145      C1152   1.451       .  S
C1146      C1147   1.411       .  A
C1147      C1148   1.424       .  A
C1148      C1151   1.427       .  S
C1149      N1156   1.156       .  T
C1150      C1537   1.445       .  S
C1150      N1155   1.156       .  T
C1152      N1154   1.157       .  T
N1153      C1541   1.155   1_455  T
C1157      C1158   1.427       .  A
C1157      C1162   1.418       .  A
C1158      C1159   1.428       .  A
C1158      C1553   1.447       .  S
C1159      C1160   1.413       .  A
C1159      C1166   1.444   1_545  S
C1160      C1161   1.428       .  A
C1161      C1162   1.440       .  A
C1161      C1164   1.447       .  S
C1162      C1165   1.445       .  S
C1163      N1170   1.156       .  T
C1164      N1169   1.157       .  T
C1165      N1167   1.157       .  T
C1166      N1558   1.155       .  T
C1171      C1172   1.445   1_556  A
C1171      C1176   1.416       .  A
C1171      C1547   1.535       .  S
C1172      H1177   1.081   1_554  S
C1173      C1174   1.393       .  A
C1173      C1536   1.542       .  S
C1174      C1175   1.401       .  A
C1174      H1178   1.077       .  S
C1175      C1519   1.528       .  S
C1176      H1179   1.081       .  S
C1180      C1181   1.403   1_556  A
C1180      C1508   1.530       .  S
C1181      H1186   1.075       .  S
C1182      C1183   1.404       .  A
C1183      C1184   1.400       .  A
C1183      H1187   1.078       .  S
C1184      C1185   1.424       .  A
C1184      C1491   1.524       .  S
C1185      H1188   1.077       .  S
C1189      C1194   1.397       .  A
C1189      C1452   1.510       .  S
C1190      C1191   1.435       .  A
C1190      H1195   1.082       .  S
C1191      C1192   1.398   1_556  A
C1191      C1463   1.526       .  S
C1192      H1196   1.084   1_554  S
C1193      C1194   1.380       .  A
C1193      C1435   1.465       .  S
C1194      H1197   1.086       .  S
C1198      C1199   1.444       .  A
C1198      C1203   1.398       .  A
C1198      C1421   1.541       .  S
C1199      H1204   1.079   1_556  S
C1200      C1201   1.402       .  A
C1200      C1407   1.533       .  S
C1201      C1202   1.407       .  A
C1201      H1205   1.078       .  S
C1203      H1206   1.083       .  S
C1207      C1212   1.401       .  A
C1207      C1382   1.527       .  S
C1208      C1209   1.446       .  A
C1208      H1213   1.082       .  S
C1209      C1210   1.397       .  A
C1209      C1365   1.524       .  S
C1210      C1211   1.378       .  A
C1210      H1214   1.086       .  S
C1211      C1351   1.448       .  S
C1212      H1215   1.085       .  S
C1216      C1221   1.390       .  A
C1216      C1326   1.510       .  S
C1217      C1218   1.453       .  A
C1217      H1222   1.081       .  S
C1218      C1219   1.413       .  A
C1218      C1337   1.555       .  S
C1219      C1220   1.398       .  A
C1219      H1223   1.078       .  S
C1220      C1309   1.474       .  S
C1221      H1224   1.087       .  S
O1225     Mg1227   2.167       .  S
O1225      C1260   1.265       .  A
C1226      H1265   1.081       .  S
C1226      O1239   1.238       .  S
C1226      O1263   1.274       .  A
Mg1227     O1267   2.202   1_455  S
Mg1227     O1238   2.273   1_455  S
O1228     Mg1253   2.130       .  S
O1228      C1249   1.240   1_445  S
O1229      C1260   1.270       .  A
O1229     Mg1253   2.316   1_565  S
C1230      C1312   1.450   1_554  S
C1230      O1232   1.261   1_554  A
C1230      O1244   1.276       .  A
O1231      C1259   1.270       .  A
O1231     Mg1233   2.301   1_556  S
O1232     Mg1264   2.160       .  S
Mg1233     O1239   2.144       .  S
Mg1233     O1247   2.305       .  S
C1234      C1522   1.506   1_565  S
C1234      O1272   1.261       .  A
C1234      O1240   1.271   1_565  A
O1235      C1242   1.259       .  A
H1236      C1249   1.079   1_455  S
C1237      H1262   1.083       .  S
C1237      O1252   1.262   1_554  A
C1237      O1251   1.262       .  A
O1238      C1261   1.266       .  A
C1241      C1480   1.478       .  S
C1241      O1254   1.274       .  A
C1241      O1246   1.269       .  A
C1242      C1438   1.462       .  S
C1242      O1269   1.267       .  A
Mg1243     O1250   2.102       .  S
Mg1243     O1245   2.291       .  S
Mg1243     O1272   2.278       .  S
O1245      C1249   1.270       .  A
O1247      C1266   1.264   1_544  A
O1248      C1268   1.266       .  A
O1250      C1261   1.235       .  S
O1251     Mg1270   2.158       .  S
O1252     Mg1264   2.260   1_545  S
Mg1253     O1269   2.253       .  S
O1254     Mg1270   2.264   1_455  S
H1255      C1260   1.083       .  S
O1256     Mg1264   2.077   1_455  S
O1256      C1259   1.239   1_565  S
H1257      C1259   1.078       .  S
H1258      C1261   1.080       .  S
O1263     Mg1270   2.324   1_455  S
C1266      C1396   1.475       .  S
C1266      O1271   1.254       .  A
O1267      C1268   1.262       .  A
C1268      C1354   1.448       .  S
C1273      C1274   1.525       .  S
C1273      C1279   1.554       .  S
C1273      C1277   1.552       .  S
C1273      C1505   1.599       .  S
C1274      H1281   1.078       .  S
C1274      C1275   1.358       .  D
C1275      C1276   1.575       .  S
C1275      C1410   1.541       .  S
C1276      C1280   1.574       .  S
C1276      C1278   1.554       .  S
C1276      H1282   1.106   1_455  S
C1277      H1283   1.084       .  S
C1277      C1278   1.388       .  D
C1278      C1379   1.545   1_455  S
C1279      H1284   1.083       .  S
C1279      C1280   1.376       .  D
C1280      C1533   1.536   1_455  S
C1285      C1286   1.504       .  S
C1285      C1291   1.564       .  S
C1285      C1289   1.545       .  S
C1285      C1323   1.580       .  S
C1286      H1293   1.086       .  S
C1286      C1287   1.346       .  D
C1287      C1288   1.577       .  S
C1287      C1424   1.530       .  S
C1288      C1292   1.553       .  S
C1288      C1290   1.578   1_565  S
C1288      H1294   1.101   1_565  S
C1289      H1295   1.079       .  S
C1289      C1290   1.393   1_565  D
C1290      C1449   1.557       .  S
C1291      H1296   1.083       .  S
C1291      C1292   1.374       .  D
C1292      C1550   1.526   1_565  S
C1297      C1298   1.527       .  S
C1297      C1303   1.565       .  S
C1297      C1301   1.545       .  S
C1297      C1494   1.600       .  S
C1298      H1305   1.082       .  S
C1298      C1299   1.363       .  D
C1299      C1300   1.586       .  S
C1299      C1340   1.549       .  S
C1300      C1304   1.550       .  S
C1300      C1302   1.562       .  S
C1300      H1306   1.105       .  S
C1301      H1307   1.079       .  S
C1301      C1302   1.381       .  D
C1302      C1368   1.545       .  S
C1303      H1308   1.073       .  S
C1303      C1304   1.371       .  D
C1304      C1466   1.523       .  S
C1309      C1310   1.416       .  A
C1310      C1311   1.407       .  A
C1310      C1315   1.450       .  S
C1311      C1312   1.405       .  A
C1311      C1318   1.450       .  S
C1313      C1314   1.391       .  A
C1313      C1316   1.457       .  S
C1314      C1317   1.454       .  S
C1315      N1322   1.157       .  T
C1316      N1321   1.157       .  T
C1317      N1319   1.158       .  T
C1318      N1320   1.157   1_565  T
C1323      C1324   1.438       .  A
C1323      C1328   1.426       .  A
C1324      C1325   1.427       .  A
C1324      C1329   1.448       .  S
C1325      C1326   1.398       .  A
C1326      C1327   1.413       .  A
C1327      C1328   1.417       .  A
C1327      C1330   1.448       .  S
C1328      C1331   1.442       .  S
C1329      N1336   1.157       .  T
C1330      N1335   1.156       .  T
C1331      N1333   1.155       .  T
C1332      N1334   1.156   1_554  T
C1337      C1338   1.442       .  A
C1337      C1342   1.417       .  A
C1338      C1339   1.431       .  A
C1338      C1343   1.451       .  S
C1339      C1340   1.413       .  A
C1339      C1346   1.451       .  S
C1340      C1341   1.433       .  A
C1341      C1342   1.427       .  A
C1341      C1344   1.451       .  S
C1342      C1345   1.448       .  S
C1344      N1349   1.157       .  T
C1345      N1347   1.157       .  T
C1346      N1348   1.158       .  T
C1351      C1352   1.402       .  A
C1351      C1356   1.405       .  A
C1352      C1353   1.394       .  A
C1353      C1354   1.413       .  A
C1354      C1355   1.409       .  A
C1355      C1356   1.400       .  A
C1355      C1358   1.448       .  S
C1356      C1359   1.453       .  S
C1357      N1364   1.157       .  T
C1358      N1363   1.156       .  T
C1359      N1361   1.157       .  T
C1360      N1362   1.158       .  T
C1365      C1366   1.411       .  A
C1365      C1370   1.423       .  A
C1366      C1367   1.431       .  A
C1366      C1371   1.449       .  S
C1367      C1368   1.431       .  A
C1367      C1374   1.445       .  S
C1368      C1369   1.420       .  A
C1369      C1370   1.420       .  A
C1369      C1372   1.448       .  S
C1371      N1378   1.157       .  T
C1372      N1377   1.155       .  T
C1373      N1375   1.157       .  T
C1374      N1376   1.158       .  T
C1379      C1380   1.434       .  A
C1379      C1384   1.416       .  A
C1380      C1381   1.434       .  A
C1380      C1385   1.444       .  S
C1381      C1382   1.411       .  A
C1381      C1388   1.449       .  S
C1382      C1383   1.417       .  A
C1383      C1384   1.416       .  A
C1384      C1387   1.449   1_655  S
C1385      N1392   1.157       .  T
C1386      N1391   1.157       .  T
C1388      N1390   1.157       .  T
C1393      C1398   1.405       .  A
C1394      C1395   1.392       .  A
C1394      C1399   1.449       .  S
C1395      C1402   1.445       .  S
C1396      C1397   1.408       .  A
C1397      C1398   1.404       .  A
C1397      C1400   1.442       .  S
C1398      C1401   1.450       .  S
C1399      N1406   1.158       .  T
C1400      N1405   1.154       .  T
C1401      N1403   1.157       .  T
C1402      N1404   1.155       .  T
C1407      C1408   1.409       .  A
C1407      C1412   1.424       .  A
C1408      C1409   1.426       .  A
C1409      C1410   1.426       .  A
C1409      C1416   1.443       .  S
C1410      C1411   1.417       .  A
C1411      C1412   1.431       .  A
C1411      C1414   1.447       .  S
C1412      C1415   1.448       .  S
C1413      N1420   1.154       .  T
C1414      N1419   1.157       .  T
C1415      N1417   1.157       .  T
C1421      C1422   1.413       .  A
C1421      C1426   1.435       .  A
C1422      C1423   1.424       .  A
C1422      C1427   1.443       .  S
C1423      C1424   1.433       .  A
C1423      C1430   1.450       .  S
C1424      C1425   1.404       .  A
C1425      C1426   1.418       .  A
C1425      C1428   1.447       .  S
C1427      N1434   1.156       .  T
C1428      N1433   1.158   1_565  T
C1429      N1431   1.158       .  T
C1430      N1432   1.156       .  T
C1435      C1440   1.410       .  A
C1436      C1437   1.396       .  A
C1436      C1441   1.453   1_554  S
C1437      C1444   1.448       .  S
C1438      C1439   1.404       .  A
C1439      C1440   1.403       .  A
C1439      C1442   1.452       .  S
C1440      C1443   1.440       .  S
C1441      N1448   1.157       .  T
C1442      N1447   1.157       .  T
C1443      N1445   1.153       .  T
C1444      N1446   1.157   1_554  T
C1449      C1450   1.429       .  A
C1449      C1454   1.434       .  A
C1450      C1451   1.422       .  A
C1450      C1455   1.440       .  S
C1451      C1452   1.407       .  A
C1451      C1458   1.449       .  S
C1452      C1453   1.405       .  A
C1453      C1454   1.428       .  A
C1453      C1456   1.449       .  S
C1454      C1457   1.446       .  S
C1455      N1462   1.153   1_545  T
C1456      N1461   1.158       .  T
C1457      N1459   1.158       .  T
C1458      N1460   1.156       .  T
C1463      C1464   1.408       .  A
C1463      C1468   1.419       .  A
C1464      C1465   1.430       .  A
C1464      C1469   1.446       .  S
C1465      C1466   1.426       .  A
C1465      C1472   1.445       .  S
C1466      C1467   1.402       .  A
C1467      C1468   1.416       .  A
C1467      C1470   1.444       .  S
C1469      N1476   1.156       .  T
C1471      N1473   1.151       .  T
C1472      N1474   1.157       .  T
C1477      C1478   1.419       .  A
C1478      C1479   1.399       .  A
C1478      C1483   1.449       .  S
C1479      C1480   1.409       .  A
C1479      C1486   1.447       .  S
C1481      C1482   1.414       .  A
C1481      C1484   1.449       .  S
C1482      C1485   1.449       .  S
C1483      N1490   1.158       .  T
C1484      N1489   1.157       .  T
C1485      N1487   1.157       .  T
C1486      N1488   1.154       .  T
C1491      C1492   1.408       .  A
C1491      C1496   1.412       .  A
C1492      C1493   1.428       .  A
C1492      C1497   1.448       .  S
C1493      C1494   1.441       .  A
C1493      C1500   1.451       .  S
C1494      C1495   1.438       .  A
C1495      C1496   1.424       .  A
C1495      C1498   1.441       .  S
C1496      C1499   1.456       .  S
C1497      N1504   1.157       .  T
C1498      N1503   1.157       .  T
C1499      N1501   1.157       .  T
C1500      N1502   1.157       .  T
C1505      C1506   1.446       .  A
C1505      C1510   1.427       .  A
C1506      C1507   1.432       .  A
C1506      C1511   1.450       .  S
C1507      C1508   1.407       .  A
C1508      C1509   1.422       .  A
C1509      C1510   1.428       .  A
C1509      C1512   1.452       .  S
C1510      C1513   1.449       .  S
C1511      N1518   1.158       .  T
C1512      N1517   1.157       .  T
C1513      N1515   1.158       .  T
C1514      N1516   1.156       .  T
C1519      C1520   1.426       .  A
C1519      C1524   1.433       .  A
C1520      C1521   1.418   1_545  A
C1521      C1522   1.423   1_565  A
C1521      C1528   1.455       .  S
C1522      C1523   1.408       .  A
C1523      C1524   1.408       .  A
C1523      C1526   1.453       .  S
C1524      C1527   1.455       .  S
C1525      N1532   1.158   1_545  T
C1526      N1531   1.157       .  T
C1527      N1529   1.158       .  T
C1533      C1534   1.413       .  A
C1533      C1538   1.412       .  A
C1534      C1535   1.427       .  A
C1534      C1539   1.447       .  S
C1535      C1536   1.424       .  A
C1535      C1542   1.440       .  S
C1536      C1537   1.423       .  A
C1537      C1538   1.434       .  A
C1538      C1541   1.443       .  S
C1539      N1546   1.156       .  T
C1540      N1545   1.157       .  T
C1542      N1544   1.153       .  T
C1547      C1548   1.422       .  A
C1547      C1552   1.410       .  A
C1548      C1549   1.421       .  A
C1549      C1550   1.409       .  A
C1549      C1556   1.444   1_545  S
C1550      C1551   1.422       .  A
C1551      C1552   1.426       .  A
C1551      C1554   1.446       .  S
C1552      C1555   1.443       .  S
C1553      N1560   1.156       .  T
C1554      N1559   1.157       .  T
C1555      N1557   1.158       .  T
