geometry optimzed in LAMMPS
_audit_creation_date              2020-11-30 
_audit_creation_method            'lammps2cif' 
_symmetry_space_group_name_H-M    'P1' 
_symmetry_Int_Tables_number       1 
_symmetry_cell_setting            triclinic 
loop_ 
_symmetry_equiv_pos_as_xyz 
  x,y,z 
_cell_length_a                    55.26157008 
_cell_length_b                    30.244803675108905 
_cell_length_c                    44.853066587492734 
_cell_angle_alpha                 90.14058919621169 
_cell_angle_beta                  89.06136528782227 
_cell_angle_gamma                 123.78186023092174 
loop_ 
_atom_site_label 
_atom_site_type_symbol 
_atom_site_fract_x 
_atom_site_fract_y 
_atom_site_fract_z 
_atom_site_charge 
C1          C  0.41888534  0.71969472  0.38496051     0.03700
C2          C  0.43507373  0.69947928  0.37485243    -0.12500
C3          C  0.42187559  0.65317450  0.35771507     0.01200
C4          C  0.39215176  0.62652889  0.35164745    -0.11000
C5          C  0.37618590  0.64873815  0.35878799     0.03700
C6          C  0.38988887  0.69558939  0.37588658    -0.10400
H7          H  0.45796543  0.72031310  0.37999029     0.09300
H8          H  0.38185642  0.58919061  0.33982103     0.06800
H9          H  0.37868698  0.71464323  0.38144157     0.06700
C10         C  0.35195142  0.87026749  0.22399887     0.03700
C11         C  0.33616803  0.81699259  0.23322107    -0.12500
C12         C  0.31491963  0.79838052  0.25625676     0.01200
C13         C  0.30718346  0.83330774  0.26676690    -0.11000
C14         C  0.32123527  0.88569286  0.25535046     0.03700
C15         C  0.34533653  0.90479572  0.23614718    -0.10400
H16         H  0.34021682  0.79010755  0.22181081     0.09300
H17         H  0.28968099  0.81953894  0.28297211     0.06800
H18         H  0.35746998  0.94574444  0.22843316     0.06700
C19         C  0.15132800  0.17133857  0.35510935     0.03700
C20         C  0.15945971  0.21921888  0.34150802    -0.12500
C21         C  0.17668279  0.23744399  0.31523514     0.01200
C22         C  0.18591076  0.20586248  0.30306584    -0.11000
C23         C  0.18016473  0.15969008  0.31813551     0.03700
C24         C  0.16270648  0.14302805  0.34426297    -0.10400
H25         H  0.15225013  0.24236484  0.35196441     0.09300
H26         H  0.19776999  0.21713907  0.28206720     0.06800
H27         H  0.15850280  0.10899912  0.35693619     0.06700
C28         C  0.26227199  0.54683140  0.30502203     0.02800
C29         C  0.25095746  0.57205735  0.28923224     0.02800
C30         C  0.22318694  0.53933468  0.27685991    -0.17700
C31         C  0.20657356  0.48358307  0.28003298     0.02800
C32         C  0.21852376  0.45841380  0.29440729     0.02800
C33         C  0.24596748  0.49103880  0.30740485    -0.17700
H34         H  0.25520762  0.47261508  0.31918081     0.04900
H35         H  0.21423958  0.55718950  0.26405986     0.04900
C36         C  0.05260110  0.32902090  0.19503744     0.03700
C37         C  0.07857356  0.34437445  0.20941995    -0.12500
C38         C  0.09288429  0.38969974  0.22754012     0.01200
C39         C  0.07924911  0.41687345  0.23280257    -0.11000
C40         C  0.05259884  0.40104722  0.21997815     0.03700
C41         C  0.03962340  0.35731707  0.20056827    -0.10400
H42         H  0.08747822  0.32062988  0.20630588     0.09300
H43         H  0.08919988  0.45044086  0.24754358     0.06800
H44         H  0.01923379  0.34466201  0.19012479     0.06700
C45         C  0.06977396  0.86687281  0.19259300     0.03700
C46         C  0.05042455  0.81801282  0.20690352    -0.12500
C47         C  0.05978374  0.80017971  0.23001006     0.01200
C48         C  0.08861810  0.83334944  0.23962247    -0.11000
C49         C  0.10910036  0.88137847  0.22460436     0.03700
C50         C  0.09920225  0.89740883  0.20070225    -0.10400
H51         H  0.02794859  0.79380657  0.19998874     0.09300
H52         H  0.09508960  0.82076092  0.25860418     0.06800
H53         H  0.11400767  0.93394850  0.18857035     0.06700
C54         C  0.43829347  0.20568385  0.37732206     0.03700
C55         C  0.41217523  0.16628992  0.36388651    -0.12500
C56         C  0.39940882  0.18015273  0.34227888     0.01200
C57         C  0.41349843  0.23339870  0.33343350    -0.11000
C58         C  0.43919088  0.27377526  0.34698339     0.03700
C59         C  0.45145483  0.25957926  0.36926677    -0.10400
H60         H  0.40170047  0.12498479  0.37044751     0.09300
H61         H  0.40375977  0.24364893  0.31631960     0.06800
H62         H  0.47109508  0.29003434  0.38025239     0.06700
C63         C  0.47909380  0.56299452  0.29945120     0.02800
C64         C  0.99649238  0.58202528  0.27336322     0.02800
C65         C  0.00516386  0.55111147  0.25960476    -0.17700
C66         C  0.99726905  0.50138492  0.27117604     0.02800
C67         C  0.48046158  0.48310025  0.29829401     0.02800
C68         C  0.47170634  0.51428341  0.31172489    -0.17700
H69         H  0.45864349  0.50025600  0.33208276     0.04900
H70         H  0.01932551  0.56695957  0.24007071     0.04900
C71         C  0.28467990  0.05715201  0.29251483     0.02800
C72         C  0.27251717  0.01102049  0.27512700     0.02800
C73         C  0.24553149  0.99027202  0.26199920    -0.17700
C74         C  0.22887401  0.01172533  0.26739998     0.02800
C75         C  0.24094262  0.05820507  0.28534880     0.02800
C76         C  0.26873605  0.07996199  0.29758274    -0.17700
H77         H  0.27801545  0.11477177  0.31161482     0.04900
H78         H  0.23686923  0.95528602  0.24817796     0.04900
Zr79       Zr  0.00019915  0.03023283  0.09697171     2.17500
O80         O  0.02554856  0.04802192  0.14391023    -0.50800
O81         O  0.45636788  0.98286452  0.12551013    -0.74000
O82         O  0.00867346  0.11039142  0.12110238    -0.80800
O83         O  0.01799445  0.92570443  0.08163761    -0.82500
O84         O  0.00375079  0.15961382  0.08680396    -0.78100
O85         O  0.01653178  0.97690230  0.11786129    -0.89800
O86         O  0.41802251  0.94423083  0.09455761    -0.75700
O87         O  0.46868510  0.04688992  0.07102584    -0.85200
O88         O  0.46957609  0.95282232  0.07033355    -0.84900
O89         O  0.03038250  0.10634844  0.06510196    -0.71700
O90         O  0.03092817  0.01960876  0.06373708    -0.83800
Zr91       Zr  0.49630071  0.02848270  0.47815014     2.26400
Zr92       Zr  0.49845201  0.12088572  0.03804441     2.06300
Zr93       Zr  0.49975597  0.94202770  0.03645031     2.10000
Zr94       Zr  0.43744999  0.96735388  0.04411796     1.78800
O95         O  0.03506945  0.92155447  0.02088609    -0.92600
O96         O  0.40448158  0.99678078  0.04818551    -0.40400
O97         O  0.46706413  0.95555588  0.01003464    -0.77000
O98         O  0.46604176  0.04131540  0.01094419    -0.95700
O99         O  0.02765839  0.10842897  0.00478042    -0.89000
O100        O  0.02872132  0.01437778  0.00358102    -0.91900
C101        C  0.42891843  0.95382575  0.12062360     1.01900
C102        C  0.02182735  0.94280639  0.10855450     1.14800
C103        C  0.00860131  0.15128882  0.11346037     1.05600
O104        O  0.46105393  0.13895890  0.04598154    -0.94000
O105        O  0.48818603  0.14566613  0.49020657    -0.89800
O106        O  0.48624020  0.08960882  0.45519788    -0.82900
C107        C  0.48453629  0.12863822  0.46324311     1.12200
O108        O  0.09616013  0.13008602  0.06967639    -0.96000
Zr109      Zr  0.05969900  0.09362288  0.03095798     1.88900
O110        O  0.04286744  0.07161959  0.44934645    -0.72700
O111        O  0.03566160  0.21090428  0.03109932    -0.51900
O112        O  0.09123562  0.19036870  0.02971831    -0.96600
O113        O  0.09180032  0.06205716  0.02881977    -0.53800
O114        O  0.08069151  0.11469386  0.48100916    -0.73200
C115        C  0.07021702  0.10111337  0.45485050     0.99200
O116        O  0.47077766  0.00987545  0.43113971    -0.62000
O117        O  0.46355123  0.84941317  0.04989334    -0.56800
O118        O  0.48174995  0.94366720  0.45568552    -0.93500
O119        O  0.48034689  0.88929633  0.49154464    -0.91900
O120        O  0.40701330  0.87050092  0.04454560    -0.92300
O121        O  0.40175853  0.93259137  0.00459789    -0.91000
C122        C  0.47627602  0.89875155  0.46485035     1.18000
H123        H  0.45920611  0.92285765  0.08368716     0.34000
H124        H  0.45253642  0.04510396  0.99974575     0.44800
H125        H  0.04025508  0.00653106  0.49047652     0.38300
H126        H  0.04346018  0.13754256  0.07665221     0.34800
H127        H  0.38575713  0.96505936  0.05532866     0.26600
H128        H  0.02667885  0.23057148  0.03639618     0.32500
H129        H  0.08487041  0.20102895  0.01221869     0.38500
H130        H  0.38703286  0.86123187  0.04857942     0.32900
H131        H  0.47249549  0.83012096  0.04357152     0.31800
H132        H  0.02633518  0.88400012  0.02676771     0.33500
H133        H  0.09078819  0.04994233  0.00808025     0.32400
H134        H  0.41224217  0.93111574  0.98690768     0.36400
H135        H  0.48190116  0.00339031  0.41627300     0.29200
H136        H  0.01190697  0.04551339  0.15943639     0.33400
H137        H  0.08585490  0.10734791  0.08738988     0.36300
H138        H  0.46327467  0.84792418  0.07194789     0.28900
H139        H  0.45191676  0.97524646  0.43389631     0.41700
H140        H  0.44430539  0.11152805  0.03428045     0.31800
H141        H  0.41159397  0.02129506  0.06535416     0.39400
H142        H  0.08177336  0.02826514  0.54206828     0.31300
H143        H  0.04948975  0.21913592  0.04730803     0.31300
H144        H  0.04191058  0.08593653  0.14313505     0.31600
C145        C  0.46578037  0.18481323  0.44980738    -0.11700
C146        C  0.47617943  0.15365662  0.44031289     0.05300
C147        C  0.47554277  0.14293498  0.40934849    -0.07000
C148        C  0.46304098  0.16026841  0.38945836    -0.07700
C149        C  0.45190005  0.18963983  0.39927824    -0.02300
C150        C  0.45359758  0.20248921  0.42968598     0.04500
N151        N  0.44133673  0.23047872  0.44074556     0.67000
H152        H  0.46570951  0.19338807  0.47326213     0.15900
H153        H  0.46235950  0.15133873  0.36594543     0.15600
N154        N  0.48790853  0.11550638  0.39746516     0.74700
O155        O  0.41417222  0.20895332  0.43998511    -0.38700
O156        O  0.45709657  0.27380296  0.45434765    -0.38700
O157        O  0.47389177  0.07855750  0.37892749    -0.39400
O158        O  0.51443813  0.13387380  0.40153714    -0.39400
C159        C  0.31767222  0.08395553  0.33570886    -0.11700
C160        C  0.31439701  0.08350355  0.30474304     0.05300
C161        C  0.33947082  0.10982609  0.28598938    -0.07000
C162        C  0.36715346  0.13755804  0.29871474    -0.07700
C163        C  0.37041230  0.14073772  0.32978486    -0.02300
C164        C  0.34537153  0.11228172  0.34833664     0.04500
N165        N  0.34763500  0.11495570  0.38007310     0.67000
H166        H  0.29854467  0.06370167  0.35020352     0.15900
H167        H  0.38628242  0.15955029  0.28431234     0.15600
N168        N  0.33728555  0.11171859  0.25423671     0.74700
O169        O  0.35300269  0.15607986  0.39355241    -0.38700
O170        O  0.34165663  0.07449029  0.39482465    -0.38700
O171        O  0.32163442  0.12572615  0.24323462    -0.39400
O172        O  0.35389701  0.10631541  0.23723789    -0.39400
C173        C  0.43214086  0.34574400  0.33411683    -0.11700
C174        C  0.45157394  0.33014482  0.33792380     0.05300
C175        C  0.48139641  0.36718646  0.33083774    -0.07000
C176        C  0.49068101  0.41762889  0.31921493    -0.07700
C177        C  0.47059059  0.43086793  0.31268764    -0.02300
C178        C  0.44098119  0.39433679  0.32082075     0.04500
N179        N  0.41919691  0.40457336  0.31437785     0.67000
H180        H  0.40932427  0.31857737  0.34009555     0.15900
H181        H  0.01346168  0.44496269  0.31290530     0.15600
N182        N  0.50221437  0.35339378  0.33358255     0.74700
O183        O  0.41420389  0.40978695  0.28770833    -0.38700
O184        O  0.40247065  0.40161444  0.33493616    -0.38700
O185        O  0.49873806  0.31398698  0.31965418    -0.39400
O186        O  0.02695945  0.38540235  0.34401655    -0.39400
C187        C  0.05491777  0.91346243  0.12044590    -0.11700
C188        C  0.03385706  0.92296554  0.13016514     0.05300
C189        C  0.02550215  0.91520420  0.16065607    -0.07000
C190        C  0.03771684  0.89736536  0.18043496    -0.07700
C191        C  0.05835933  0.88715118  0.17063421    -0.02300
C192        C  0.06728323  0.89593416  0.14040811     0.04500
N193        N  0.08829170  0.88599347  0.12955739     0.67000
H194        H  0.06190973  0.91987056  0.09724176     0.15900
H195        H  0.03080779  0.89091231  0.20367352     0.15600
N196        N  0.50680841  0.93125443  0.17271994     0.74700
O197        O  0.08126693  0.83876589  0.12663880    -0.38700
O198        O  0.11258001  0.92390738  0.11946281    -0.38700
O199        O  0.48041211  0.90281137  0.16544988    -0.39400
O200        O  0.51440636  0.96480234  0.19331085    -0.39400
C201        C  0.15669910  0.97087071  0.23104060    -0.11700
C202        C  0.14034213  0.91494999  0.23445609     0.05300
C203        C  0.15414927  0.89230615  0.24796942    -0.07000
C204        C  0.18167268  0.92527121  0.26031248    -0.07700
C205        C  0.19835441  0.98065723  0.25592545    -0.02300
C206        C  0.18597018  0.00331880  0.23979810     0.04500
N207        N  0.20308026  0.05811326  0.23063192     0.67000
H208        H  0.14715468  0.98978537  0.22063318     0.15900
H209        H  0.19088227  0.90677881  0.27202396     0.15600
N210        N  0.14190949  0.83626998  0.24725591     0.74700
O211        O  0.19198439  0.08503541  0.23058388    -0.38700
O212        O  0.22783530  0.07737544  0.21860899    -0.38700
O213        O  0.13516456  0.81229621  0.22263258    -0.39400
O214        O  0.14154862  0.81233205  0.27045759    -0.39400
C215        C  0.02581674  0.70265587  0.22192701    -0.11700
C216        C  0.04036069  0.74493188  0.24211445     0.05300
C217        C  0.03843763  0.73300656  0.27286939    -0.07000
C218        C  0.02364668  0.67986129  0.28244280    -0.07700
C219        C  0.00935210  0.63755169  0.26224217    -0.02300
C220        C  0.01021192  0.64951770  0.23160722     0.04500
N221        N  0.99591411  0.60834357  0.20988536     0.67000
H222        H  0.02722093  0.71084842  0.19822962     0.15900
H223        H  0.02370141  0.67167547  0.30592169     0.15600
N224        N  0.05103731  0.77425184  0.29471064     0.74700
O225        O  0.96858439  0.58221274  0.20788454    -0.38700
O226        O  0.01070201  0.60506752  0.18932590    -0.38700
O227        O  0.04357529  0.80678692  0.29618446    -0.39400
O228        O  0.06718837  0.77479608  0.31449199    -0.39400
C229        C  0.01915399  0.24085617  0.12681999    -0.11700
C230        C  0.01623618  0.19353828  0.13611144     0.05300
C231        C  0.02358230  0.19054023  0.16587439    -0.07000
C232        C  0.03494033  0.23481433  0.18455671    -0.07700
C233        C  0.03902454  0.28251050  0.17469747    -0.02300
C234        C  0.03068883  0.28517984  0.14553928     0.04500
N235        N  0.03567834  0.33366215  0.13382094     0.67000
H236        H  0.01391055  0.24480712  0.10423159     0.15900
H237        H  0.04052722  0.23177335  0.20717212     0.15600
N238        N  0.52012701  0.14440686  0.17758733     0.74700
O239        O  0.06124747  0.37483744  0.13209687    -0.38700
O240        O  0.01517539  0.33368352  0.12184694    -0.38700
O241        O  0.54065994  0.14586424  0.19056522    -0.39400
O242        O  0.49449877  0.10383692  0.18076265    -0.39400
C243        C  0.00746734  0.39769950  0.23469527    -0.11700
C244        C  0.03774897  0.42820034  0.22906195     0.05300
C245        C  0.05375315  0.48337534  0.23537554    -0.07000
C246        C  0.04004244  0.50482677  0.24997143    -0.07700
C247        C  0.00994700  0.47442643  0.25593471    -0.02300
C248        C  0.99325961  0.42067471  0.24677275     0.04500
N249        N  0.46292173  0.39061677  0.24932351     0.67000
H250        H  0.99465973  0.35564451  0.22969534     0.15900
H251        H  0.05307429  0.54643105  0.25609821     0.15600
N252        N  0.08372594  0.51870869  0.22638798     0.74700
O253        O  0.44910362  0.40947000  0.23965464    -0.38700
O254        O  0.44909352  0.34209591  0.25672012    -0.38700
O255        O  0.09162208  0.51823221  0.19988966    -0.39400
O256        O  0.10185577  0.55348666  0.24414828    -0.39400
C257        C  0.12787588  0.43545883  0.26926393    -0.11700
C258        C  0.12163209  0.40904190  0.24171044     0.05300
C259        C  0.14352664  0.40430955  0.22811744    -0.07000
C260        C  0.17014532  0.42489746  0.24243568    -0.07700
C261        C  0.17659785  0.45423113  0.26870093    -0.02300
C262        C  0.15543199  0.46094886  0.28184972     0.04500
N263        N  0.16151535  0.49440264  0.30742881     0.67000
H264        H  0.11136512  0.43726913  0.28134280     0.15900
H265        H  0.18683010  0.42167971  0.23173430     0.15600
N266        N  0.14037054  0.38296929  0.19883825     0.74700
O267        O  0.14963345  0.51980973  0.31016279    -0.38700
O268        O  0.17823096  0.49829353  0.32760017    -0.38700
O269        O  0.13685990  0.40483119  0.17691991    -0.39400
O270        O  0.14528822  0.34742996  0.19424175    -0.39400
C271        C  0.13839842  0.18371509  0.40632746    -0.11700
C272        C  0.13096405  0.15172611  0.38100598     0.05300
C273        C  0.10351060  0.10304086  0.38000784    -0.07000
C274        C  0.08398503  0.08735948  0.40421752    -0.07700
C275        C  0.09121838  0.11966397  0.42947270    -0.02300
C276        C  0.11887977  0.16824439  0.43044368     0.04500
N277        N  0.12707804  0.20336670  0.45521537     0.67000
H278        H  0.15935762  0.22140244  0.40716332     0.15900
H279        H  0.06295791  0.04985701  0.40314683     0.15600
N280        N  0.09468410  0.07026364  0.35408069     0.74700
O281        O  0.14547274  0.20779060  0.47340714    -0.38700
O282        O  0.11925975  0.23539162  0.45642889    -0.38700
O283        O  0.08626754  0.02213226  0.35641067    -0.39400
O284        O  0.09174919  0.08736264  0.32968353    -0.39400
C285        C  0.16645040  0.30740063  0.30663923    -0.11700
C286        C  0.18547124  0.29058683  0.30246774     0.05300
C287        C  0.21359803  0.32805965  0.29049814    -0.07000
C288        C  0.22250747  0.38100828  0.28578059    -0.07700
C289        C  0.20495253  0.39931332  0.29454726    -0.02300
C290        C  0.17631292  0.36122604  0.30497379     0.04500
N291        N  0.15832324  0.37643685  0.31822329     0.67000
H292        H  0.14428848  0.27930545  0.31436112     0.15900
H293        H  0.24429849  0.40902341  0.27704288     0.15600
N294        N  0.23430741  0.31467866  0.28497004     0.74700
O295        O  0.13188257  0.35199128  0.31115535    -0.38700
O296        O  0.16614841  0.40165094  0.34241783    -0.38700
O297        O  0.24100261  0.31114317  0.25844303    -0.39400
O298        O  0.24972412  0.31648031  0.30598981    -0.39400
C299        C  0.19673906  0.05347498  0.30482240    -0.11700
C300        C  0.22513396  0.08406655  0.29284515     0.05300
C301        C  0.23847821  0.13946394  0.28907731    -0.07000
C302        C  0.22338703  0.16267021  0.29731355    -0.07700
C303        C  0.19446002  0.13187141  0.30815265    -0.02300
C304        C  0.18093308  0.07609747  0.31134966     0.04500
N305        N  0.15086828  0.04130713  0.31991567     0.67000
H306        H  0.18636355  0.01116962  0.30835014     0.15900
H307        H  0.23460814  0.20542493  0.29519976     0.15600
N308        N  0.26723556  0.17280772  0.27650775     0.74700
O309        O  0.13159774  0.04117184  0.30512481    -0.38700
O310        O  0.14329236  0.00634768  0.33986922    -0.38700
O311        O  0.27187490  0.16822271  0.24940374    -0.39400
O312        O  0.28685520  0.21182897  0.29109413    -0.39400
C313        C  0.36033428  0.87358633  0.16967379    -0.11700
C314        C  0.37206645  0.88848480  0.19814253     0.05300
C315        C  0.40226980  0.92390818  0.20123745    -0.07000
C316        C  0.42035143  0.94394216  0.17582198    -0.07700
C317        C  0.40876564  0.92995776  0.14694946    -0.02300
C318        C  0.37821018  0.89386731  0.14415376     0.04500
N319        N  0.36477056  0.87724314  0.11573625     0.67000
H320        H  0.33697685  0.84675152  0.16724169     0.15900
H321        H  0.44356296  0.97136145  0.17886011     0.15600
N322        N  0.41483363  0.94003206  0.23006320     0.74700
O323        O  0.36198091  0.83706607  0.10352278    -0.38700
O324        O  0.35054690  0.89529906  0.10609572    -0.38700
O325        O  0.42803510  0.92069829  0.24076530    -0.39400
O326        O  0.41692683  0.97948481  0.24246646    -0.39400
C327        C  0.29933403  0.92133688  0.28938573    -0.11700
C328        C  0.30943603  0.91914460  0.26078778     0.05300
C329        C  0.30763521  0.94853335  0.23722226    -0.07000
C330        C  0.29700985  0.98026696  0.24292273    -0.07700
C331        C  0.28658648  0.98159469  0.27122843    -0.02300
C332        C  0.28716001  0.95099928  0.29455440     0.04500
N333        N  0.27358699  0.94669063  0.32285566     0.67000
H334        H  0.30002452  0.89860322  0.30757783     0.15900
H335        H  0.29555359  0.00216287  0.22472183     0.15600
N336        N  0.31453834  0.94386816  0.20692966     0.74700
O337        O  0.28715569  0.95358111  0.34660926    -0.38700
O338        O  0.24680283  0.92880844  0.32426141    -0.38700
O339        O  0.30027192  0.89937985  0.19412621    -0.39400
O340        O  0.33217553  0.98512301  0.19186175    -0.39400
C341        C  0.26983302  0.71354469  0.27590833    -0.11700
C342        C  0.29943332  0.74161185  0.26720845     0.05300
C343        C  0.31327218  0.71369121  0.26771174    -0.03300
C344        C  0.29694630  0.65897696  0.27397925    -0.07700
C345        C  0.26775203  0.63131252  0.28365991    -0.02300
C346        C  0.25438373  0.65999560  0.28521960     0.04500
N347        N  0.22523960  0.63575007  0.29657526     0.67000
H348        H  0.25831720  0.73302056  0.27566161     0.15900
H349        H  0.30754414  0.63830875  0.27118057     0.15600
N350        N  0.34408870  0.74025981  0.26305835     0.74700
O351        O  0.21869555  0.61596634  0.32252065    -0.38700
O352        O  0.20706315  0.63977798  0.28225142    -0.38700
O353        O  0.36144997  0.77916283  0.27921476    -0.39400
O354        O  0.35393780  0.72072685  0.24567676    -0.39400
C355        C  0.45748874  0.81492961  0.39489041    -0.11700
C356        C  0.43267974  0.76650487  0.40480109     0.05300
C357        C  0.42236008  0.76230340  0.43427103    -0.07000
C358        C  0.43743069  0.80545114  0.45359510    -0.07700
C359        C  0.46242776  0.85370472  0.44388951    -0.02300
C360        C  0.47223667  0.85866618  0.41406914     0.04500
N361        N  0.49769002  0.90706905  0.40331308     0.67000
H362        H  0.46562826  0.81851322  0.37227283     0.15900
H363        H  0.92932904  0.80340293  0.47648806     0.15600
N364        N  0.39685366  0.71412176  0.44504330     0.74700
O365        O  0.52241537  0.92139730  0.41272699    -0.38700
O366        O  0.49586637  0.93206553  0.38193675    -0.38700
O367        O  0.89924028  0.68084288  0.45906645    -0.39400
O368        O  0.87360595  0.71274129  0.44756107    -0.39400
C369        C  0.29652611  0.60170268  0.34561283    -0.11700
C370        C  0.29164006  0.57622287  0.31811323     0.05300
C371        C  0.31430107  0.57522350  0.30418407    -0.07000
C372        C  0.34166092  0.60164250  0.31706310    -0.07700
C373        C  0.34663209  0.62488761  0.34551994    -0.02300
C374        C  0.32340690  0.62446443  0.35991091     0.04500
N375        N  0.32581037  0.64312761  0.38973356     0.67000
H376        H  0.27881934  0.60110130  0.35681800     0.15900
H377        H  0.35897699  0.60288263  0.30461713     0.15600
N378        N  0.30984342  0.54764512  0.27673052     0.74700
O379        O  0.32007540  0.67726915  0.39549381    -0.38700
O380        O  0.32896823  0.61940557  0.41087562    -0.38700
O381        O  0.32159623  0.57374568  0.25297134    -0.39400
O382        O  0.29977206  0.49861063  0.27736882    -0.39400
C383        C  0.43501952  0.62306467  0.31248596    -0.11700
C384        C  0.43901355  0.63462054  0.34307144     0.05300
C385        C  0.45817507  0.62641296  0.35866375    -0.07000
C386        C  0.47167528  0.60449051  0.34384541    -0.07700
C387        C  0.46633149  0.59026255  0.31363773    -0.02300
C388        C  0.44792948  0.60015633  0.29779087     0.04500
N389        N  0.44070184  0.58439309  0.26734257     0.67000
H390        H  0.42069395  0.62992121  0.30011448     0.15900
H391        H  0.48588063  0.59727545  0.35616601     0.15600
N392        N  0.46304396  0.63757498  0.38976584     0.74700
O393        O  0.44001306  0.61521681  0.24896502    -0.38700
O394        O  0.43068255  0.53698776  0.25993670    -0.38700
O395        O  0.44425455  0.60538269  0.40861499    -0.39400
O396        O  0.48779762  0.67479353  0.39843761    -0.39400
C397        C  0.41949425  0.71834558  0.88665759     0.03700
C398        C  0.43566388  0.69823755  0.87635272    -0.12500
C399        C  0.42230587  0.65167473  0.85940194     0.01200
C400        C  0.39247155  0.62478269  0.85370557    -0.11000
C401        C  0.37649125  0.64676578  0.86132398     0.03700
C402        C  0.39031861  0.69372870  0.87825431    -0.10400
H403        H  0.45865963  0.71945475  0.88108135     0.09300
H404        H  0.38208328  0.58755418  0.84175049     0.06800
H405        H  0.37903674  0.71252355  0.88413422     0.06700
C406        C  0.35059690  0.87073731  0.72396317     0.03700
C407        C  0.33569105  0.81814792  0.73455603    -0.12500
C408        C  0.31485597  0.80030860  0.75809579     0.01200
C409        C  0.30698267  0.83530057  0.76821578    -0.11000
C410        C  0.32035629  0.88694354  0.75595682     0.03700
C411        C  0.34388769  0.90531662  0.73609423    -0.10400
H412        H  0.33968772  0.79086944  0.72357011     0.09300
H413        H  0.28993758  0.82217787  0.78490068     0.06800
H414        H  0.35577321  0.94611173  0.72813985     0.06700
C415        C  0.14993040  0.17193810  0.85476311     0.03700
C416        C  0.15805021  0.21996498  0.84138628    -0.12500
C417        C  0.17556214  0.23886334  0.81531472     0.01200
C418        C  0.18499300  0.20764376  0.80305521    -0.11000
C419        C  0.17932165  0.16141395  0.81797096     0.03700
C420        C  0.16157706  0.14409530  0.84390341    -0.10400
H421        H  0.15072318  0.24280771  0.85198982     0.09300
H422        H  0.19704724  0.21932220  0.78217327     0.06800
H423        H  0.15745343  0.11004681  0.85649346     0.06700
C424        C  0.26259079  0.54885988  0.80827255     0.02800
C425        C  0.25136631  0.57474312  0.79298018     0.02800
C426        C  0.22349557  0.54247373  0.78064611    -0.17700
C427        C  0.20683558  0.48659510  0.78318656     0.02800
C428        C  0.21871699  0.46097541  0.79713871     0.02800
C429        C  0.24613633  0.49301965  0.81022243    -0.17700
H430        H  0.25528252  0.47408190  0.82162898     0.04900
H431        H  0.21461113  0.56079077  0.76818193     0.04900
C432        C  0.05402430  0.33096435  0.69528086     0.03700
C433        C  0.07970638  0.34597454  0.71023720    -0.12500
C434        C  0.09376941  0.39118557  0.72854348     0.01200
C435        C  0.08012916  0.41850609  0.73326381    -0.11000
C436        C  0.05369107  0.40276298  0.71997984     0.03700
C437        C  0.04099826  0.35923263  0.70048961    -0.10400
H438        H  0.08849609  0.32200098  0.70743792     0.09300
H439        H  0.08990335  0.45224017  0.74789510     0.06800
H440        H  0.02076960  0.34672227  0.68972241     0.06700
C441        C  0.07007300  0.86956433  0.69371463     0.03700
C442        C  0.05085096  0.82027790  0.70765058    -0.12500
C443        C  0.06015241  0.80256285  0.73085934     0.01200
C444        C  0.08876621  0.83631331  0.74100108    -0.11000
C445        C  0.10925599  0.88462578  0.72617886     0.03700
C446        C  0.09938871  0.90052015  0.70217317    -0.10400
H447        H  0.02851334  0.79562371  0.70035609     0.09300
H448        H  0.09506480  0.82385011  0.76016581     0.06800
H449        H  0.11412089  0.93724056  0.69017543     0.06700
C450        C  0.43971407  0.20679342  0.87661216     0.03700
C451        C  0.41297490  0.16775409  0.86403234    -0.12500
C452        C  0.40044923  0.18172956  0.84216561     0.01200
C453        C  0.41516264  0.23471341  0.83261785    -0.11000
C454        C  0.44126816  0.27483841  0.84564275     0.03700
C455        C  0.45358812  0.26047345  0.86774948    -0.10400
H456        H  0.40194288  0.12669917  0.87132816     0.09300
H457        H  0.40549323  0.24511818  0.81550263     0.06800
H458        H  0.47352399  0.29074178  0.87838488     0.06700
C459        C  0.47987801  0.56353224  0.79947896     0.02800
C460        C  0.99708619  0.58335079  0.77276037     0.02800
C461        C  0.00605839  0.55278627  0.75911601    -0.17700
C462        C  0.99814056  0.50294679  0.77056759     0.02800
C463        C  0.48158197  0.48405891  0.79763435     0.02800
C464        C  0.47300701  0.51509366  0.81161600    -0.17700
H465        H  0.46043489  0.50109710  0.83227642     0.04900
H466        H  0.02041763  0.56895319  0.73973939     0.04900
C467        C  0.28529168  0.06112223  0.79295597     0.02800
C468        C  0.27298621  0.01484875  0.77564021     0.02800
C469        C  0.24605113  0.99440200  0.76245403    -0.17700
C470        C  0.22949013  0.01601565  0.76788513     0.02800
C471        C  0.24160535  0.06245616  0.78586221     0.02800
C472        C  0.26944657  0.08418212  0.79800161    -0.17700
H473        H  0.27878156  0.11899109  0.81203374     0.04900
H474        H  0.23724896  0.95930705  0.74869541     0.04900
Zr475      Zr  0.00124771  0.03270205  0.59699271     2.17500
O476        O  0.02749396  0.05215778  0.64349133    -0.50800
O477        O  0.45614365  0.98082427  0.62658918    -0.74000
O478        O  0.00971020  0.11300837  0.62070500    -0.80800
O479        O  0.01841062  0.92722995  0.58230039    -0.82500
O480        O  0.00590806  0.16314430  0.58606052    -0.78100
O481        O  0.01678218  0.97848656  0.61838281    -0.89800
O482        O  0.41781078  0.94665600  0.59549548    -0.75700
O483        O  0.46782287  0.04531299  0.57139670    -0.85200
O484        O  0.46880877  0.95130835  0.57085520    -0.84900
O485        O  0.03176212  0.10822697  0.56480375    -0.71700
O486        O  0.03167722  0.02080275  0.56409041    -0.83800
Zr487      Zr  0.49713333  0.03072578  0.97770683     2.26400
Zr488      Zr  0.49709024  0.11882629  0.53794161     2.06300
Zr489      Zr  0.49899464  0.94052289  0.53700604     2.10000
Zr490      Zr  0.43659246  0.96564605  0.54471464     1.78800
O491        O  0.03519999  0.92230291  0.52101952    -0.92600
O492        O  0.40503452  0.99832421  0.54635812    -0.40400
O493        O  0.46611989  0.95346139  0.51058476    -0.77000
O494        O  0.46495995  0.03892380  0.51105324    -0.95700
O495        O  0.02921950  0.10960768  0.50450681    -0.89000
O496        O  0.02958295  0.01476162  0.50399657    -0.91900
C497        C  0.42876386  0.95457540  0.62148058     1.01900
C498        C  0.02208899  0.94435314  0.60917890     1.14800
C499        C  0.01017357  0.15434845  0.61288491     1.05600
O500        O  0.45768844  0.13191068  0.54476070    -0.94000
O501        O  0.48799067  0.14640754  0.99087133    -0.89800
O502        O  0.48821904  0.09365635  0.95483829    -0.82900
C503        C  0.48527763  0.13096621  0.96366403     1.12200
O504        O  0.09696131  0.13119722  0.57015406    -0.96000
Zr505      Zr  0.06085717  0.09425270  0.53108493     1.88900
O506        O  0.04165669  0.07083703  0.94920178    -0.72700
O507        O  0.03771330  0.21392504  0.53159715    -0.51900
O508        O  0.09326336  0.19085126  0.52921143    -0.96600
O509        O  0.09231026  0.06127569  0.52987919    -0.53800
O510        O  0.07941659  0.11488914  0.98085280    -0.73200
C511        C  0.06898911  0.10086895  0.95470633     0.99200
O512        O  0.47170172  0.01351076  0.93073979    -0.62000
O513        O  0.46268491  0.84998572  0.55367814    -0.56800
O514        O  0.48160475  0.94514720  0.95529861    -0.93500
O515        O  0.48115797  0.89137954  0.99093690    -0.91900
O516        O  0.40486929  0.86902748  0.54802278    -0.92300
O517        O  0.39994231  0.92538168  0.50618546    -0.91000
C518        C  0.47654195  0.90043135  0.96439177     1.18000
H519        H  0.45856705  0.92166563  0.58417513     0.34000
H520        H  0.45142079  0.04255132  0.49975785     0.44800
H521        H  0.03952277  0.00658107  0.98995409     0.38300
H522        H  0.04492295  0.13946974  0.57626735     0.34800
H523        H  0.38564410  0.96705462  0.55236304     0.26600
H524        H  0.04463826  0.21715224  0.51071637     0.32500
H525        H  0.08655781  0.20166211  0.51208372     0.38500
H526        H  0.38679938  0.86159619  0.55791101     0.32900
H527        H  0.44535714  0.83870365  0.54158547     0.31800
H528        H  0.02703102  0.88546488  0.52797354     0.33500
H529        H  0.09136272  0.04885151  0.50922771     0.32400
H530        H  0.41120226  0.93861623  0.48719088     0.36400
H531        H  0.48257466  0.00644610  0.91586322     0.29200
H532        H  0.01390364  0.04906231  0.65927519     0.33400
H533        H  0.08564389  0.11365393  0.58870121     0.36300
H534        H  0.46999591  0.82868215  0.54601605     0.28900
H535        H  0.45265771  0.97922251  0.93349746     0.41700
H536        H  0.46720420  0.17085269  0.54297812     0.31800
H537        H  0.41149859  0.02201544  0.56387581     0.39400
H538        H  0.08159876  0.02890567  0.04089331     0.31300
H539        H  0.02772830  0.23279976  0.53180394     0.31300
H540        H  0.04349159  0.09032847  0.64256677     0.31600
C541        C  0.45741603  0.17057629  0.95049531    -0.11700
C542        C  0.47634255  0.15554664  0.94137379     0.05300
C543        C  0.48418955  0.16017641  0.91079481    -0.07000
C544        C  0.47250134  0.17796639  0.89012725    -0.07700
C545        C  0.45284384  0.19102096  0.89925726    -0.02300
C546        C  0.44535938  0.18741237  0.92972285     0.04500
N547        N  0.42463428  0.19866495  0.93970703     0.67000
H548        H  0.45071793  0.16663867  0.97371223     0.15900
H549        H  0.47857464  0.18109597  0.86674887     0.15600
N550        N  0.50438778  0.14790929  0.90042839     0.74700
O551        O  0.39795705  0.16593419  0.93464322    -0.38700
O552        O  0.43228737  0.23661584  0.95738479    -0.38700
O553        O  0.49552678  0.10683477  0.88500556    -0.39400
O554        O  0.53137044  0.18237198  0.90230257    -0.39400
C555        C  0.31837925  0.08837359  0.83615902    -0.11700
C556        C  0.31501076  0.08717747  0.80517898     0.05300
C557        C  0.34002006  0.11225151  0.78634241    -0.07000
C558        C  0.36774112  0.13908800  0.79893845    -0.07700
C559        C  0.37116263  0.14294671  0.82999230    -0.02300
C560        C  0.34614234  0.11612156  0.84867415     0.04500
N561        N  0.34853026  0.12017889  0.88037088     0.67000
H562        H  0.29930206  0.06920523  0.85073598     0.15900
H563        H  0.38683049  0.16000533  0.78441019     0.15600
N564        N  0.33776553  0.11402197  0.75460563     0.74700
O565        O  0.35429087  0.16218321  0.89307063    -0.38700
O566        O  0.34132767  0.07970606  0.89584771    -0.38700
O567        O  0.32315190  0.13031845  0.74364592    -0.39400
O568        O  0.35362110  0.10667026  0.73758609    -0.39400
C569        C  0.43411797  0.34687189  0.83367886    -0.11700
C570        C  0.45361890  0.33124156  0.83670126     0.05300
C571        C  0.48333980  0.36837261  0.82918889    -0.07000
C572        C  0.49235343  0.41878029  0.81768821    -0.07700
C573        C  0.47209247  0.43192634  0.81186853    -0.02300
C574        C  0.44266880  0.39542314  0.82060829     0.04500
N575        N  0.42074398  0.40567657  0.81505534     0.67000
H576        H  0.41142228  0.31975990  0.84013680     0.15900
H577        H  0.01399595  0.44577564  0.81228383     0.15600
N578        N  0.50433143  0.35490255  0.83158333     0.74700
O579        O  0.41473082  0.40985089  0.78862638    -0.38700
O580        O  0.40486362  0.40369074  0.83626595    -0.38700
O581        O  0.50037521  0.31450919  0.81840635    -0.39400
O582        O  0.02684458  0.38509254  0.84453181    -0.39400
C583        C  0.05602302  0.91734257  0.62156900    -0.11700
C584        C  0.03400742  0.92455979  0.63085360     0.05300
C585        C  0.02464936  0.91484258  0.66102262    -0.07000
C586        C  0.03696129  0.89749900  0.68100435    -0.07700
C587        C  0.05863637  0.88963381  0.67165276    -0.02300
C588        C  0.06847997  0.90032611  0.64171618     0.04500
N589        N  0.09056424  0.89289756  0.63132757     0.67000
H590        H  0.06374486  0.92530610  0.59859149     0.15900
H591        H  0.02929976  0.88950139  0.70400705     0.15600
N592        N  0.49987612  0.91591722  0.67051227     0.74700
O593        O  0.08416035  0.84662671  0.62596289    -0.38700
O594        O  0.11529375  0.93265724  0.62361148    -0.38700
O595        O  0.47398759  0.87832922  0.66542920    -0.39400
O596        O  0.50469439  0.95232855  0.68823680    -0.39400
C597        C  0.15690314  0.97436536  0.73218500    -0.11700
C598        C  0.14051422  0.91848979  0.73609916     0.05300
C599        C  0.15442286  0.89625650  0.74991821    -0.07000
C600        C  0.18216279  0.92958374  0.76171954    -0.07700
C601        C  0.19886862  0.98477804  0.75669758    -0.02300
C602        C  0.18629729  0.00706924  0.74054871     0.04500
N603        N  0.20324144  0.06180509  0.73120035     0.67000
H604        H  0.14727443  0.99308009  0.72173149     0.15900
H605        H  0.19148960  0.91145452  0.77359449     0.15600
N606        N  0.14203434  0.84015623  0.75020304     0.74700
O607        O  0.19196071  0.08841077  0.73093276    -0.38700
O608        O  0.22817691  0.08150460  0.71952449    -0.38700
O609        O  0.13490466  0.81478993  0.72602812    -0.39400
O610        O  0.14187887  0.81745431  0.77386588    -0.39400
C611        C  0.02718048  0.70504144  0.72191251    -0.11700
C612        C  0.04095659  0.74689595  0.74245719     0.05300
C613        C  0.03836837  0.73428813  0.77314743    -0.07000
C614        C  0.02364404  0.68099410  0.78239552    -0.07700
C615        C  0.00998952  0.63906919  0.76187688    -0.02300
C616        C  0.01156411  0.65167934  0.73123251     0.04500
N617        N  0.99791587  0.61096670  0.70916769     0.67000
H618        H  0.02910236  0.71377724  0.69824551     0.15900
H619        H  0.02325120  0.67243306  0.80588872     0.15600
N620        N  0.05012204  0.77499796  0.79526607     0.74700
O621        O  0.97054013  0.58269468  0.70746639    -0.38700
O622        O  0.01310686  0.60934334  0.68842046    -0.38700
O623        O  0.04066678  0.80441529  0.79784059    -0.39400
O624        O  0.06711585  0.77716796  0.81456514    -0.39400
C625        C  0.02166937  0.24452897  0.62631072    -0.11700
C626        C  0.01775780  0.19641777  0.63564849     0.05300
C627        C  0.02405220  0.19227545  0.66570408    -0.07000
C628        C  0.03568057  0.23644367  0.68455195    -0.07700
C629        C  0.04067263  0.28482807  0.67467601    -0.02300
C630        C  0.03311752  0.28842691  0.64531831     0.04500
N631        N  0.03874088  0.33742766  0.63377277     0.67000
H632        H  0.01713987  0.24930344  0.60356607     0.15900
H633        H  0.04054340  0.23268669  0.70735708     0.15600
N634        N  0.51406486  0.13972882  0.67843497     0.74700
O635        O  0.06465116  0.37669124  0.62987788    -0.38700
O636        O  0.01808480  0.33941092  0.62396948    -0.38700
O637        O  0.53247491  0.13878518  0.69423696    -0.39400
O638        O  0.48810546  0.09963792  0.67838715    -0.39400
C639        C  0.00849069  0.39935278  0.73425862    -0.11700
C640        C  0.03876235  0.42990537  0.72864085     0.05300
C641        C  0.05472060  0.48516245  0.73465082    -0.07000
C642        C  0.04099104  0.50663731  0.74921656    -0.07700
C643        C  0.01090053  0.47612898  0.75530301    -0.02300
C644        C  0.99424406  0.42234866  0.74617831     0.04500
N645        N  0.46265981  0.39143667  0.74847163     0.67000
H646        H  0.99573653  0.35725501  0.72935865     0.15900
H647        H  0.05398612  0.54828981  0.75523443     0.15600
N648        N  0.08464818  0.52043161  0.72540854     0.74700
O649        O  0.44883680  0.41067923  0.73942006    -0.38700
O650        O  0.44877389  0.34286251  0.75576372    -0.38700
O651        O  0.09263609  0.51783827  0.69929884    -0.39400
O652        O  0.10266638  0.55694826  0.74246979    -0.39400
C653        C  0.12813003  0.43750295  0.77077067    -0.11700
C654        C  0.12227499  0.41055729  0.74340216     0.05300
C655        C  0.14439998  0.40566265  0.73061298    -0.07000
C656        C  0.17095957  0.42725068  0.74523917    -0.07700
C657        C  0.17705372  0.45724199  0.77120308    -0.02300
C658        C  0.15553527  0.46350952  0.78376725     0.04500
N659        N  0.16108184  0.49685650  0.80924499     0.67000
H660        H  0.11140509  0.43923786  0.78242479     0.15900
H661        H  0.18779876  0.42389037  0.73507727     0.15600
N662        N  0.14147095  0.38273126  0.70187526     0.74700
O663        O  0.14946249  0.52280716  0.81122925    -0.38700
O664        O  0.17685068  0.49971509  0.83018329    -0.38700
O665        O  0.13966753  0.40494941  0.67902661    -0.39400
O666        O  0.14506566  0.34523126  0.69881085    -0.39400
C667        C  0.13696836  0.18414143  0.90598627    -0.11700
C668        C  0.12961644  0.15208675  0.88070260     0.05300
C669        C  0.10234568  0.10304419  0.87984941    -0.07000
C670        C  0.08286119  0.08717379  0.90410900    -0.07700
C671        C  0.09002760  0.11949833  0.92935485    -0.02300
C672        C  0.11758868  0.16830799  0.93024639     0.04500
N673        N  0.12592044  0.20311947  0.95518185     0.67000
H674        H  0.15784226  0.22200022  0.90677341     0.15900
H675        H  0.06193352  0.04946888  0.90309849     0.15600
N676        N  0.09367230  0.07001961  0.85404065     0.74700
O677        O  0.14195806  0.20299926  0.97484502    -0.38700
O678        O  0.12139273  0.23966340  0.95496101    -0.38700
O679        O  0.08622953  0.02244207  0.85644017    -0.39400
O680        O  0.08997166  0.08619013  0.82971185    -0.39400
C681        C  0.16594728  0.30989039  0.80775375    -0.11700
C682        C  0.18468687  0.29254621  0.80308992     0.05300
C683        C  0.21295213  0.33003978  0.79139508    -0.07000
C684        C  0.22222930  0.38332718  0.78740424    -0.07700
C685        C  0.20495574  0.40188108  0.79675422    -0.02300
C686        C  0.17626449  0.36397817  0.80705885     0.04500
N687        N  0.15877284  0.37952405  0.82122427     0.67000
H688        H  0.14368987  0.28191543  0.81522958     0.15900
H689        H  0.24407721  0.41131365  0.77879700     0.15600
N690        N  0.23344892  0.31629669  0.78545649     0.74700
O691        O  0.13217367  0.35557832  0.81489043    -0.38700
O692        O  0.16737650  0.40492422  0.84532335    -0.38700
O693        O  0.24018665  0.31355243  0.75881292    -0.39400
O694        O  0.24870643  0.31706646  0.80633220    -0.39400
C695        C  0.19714161  0.05683306  0.80526218    -0.11700
C696        C  0.22562989  0.08795179  0.79354963     0.05300
C697        C  0.23869220  0.14327721  0.78988409    -0.07000
C698        C  0.22317943  0.16582897  0.79779497    -0.07700
C699        C  0.19411024  0.13439567  0.80819526    -0.02300
C700        C  0.18090410  0.07873235  0.81132628     0.04500
N701        N  0.15071537  0.04330314  0.81923953     0.67000
H702        H  0.18697201  0.01459104  0.80879734     0.15900
H703        H  0.23417466  0.20854587  0.79576742     0.15600
N704        N  0.26755702  0.17719179  0.77770034     0.74700
O705        O  0.13161043  0.04255032  0.80378916    -0.38700
O706        O  0.14295899  0.00828811  0.83920164    -0.38700
O707        O  0.27231001  0.17465024  0.75034822    -0.39400
O708        O  0.28704738  0.21523718  0.79293283    -0.39400
C709        C  0.36458745  0.91135783  0.67349638    -0.11700
C710        C  0.37034463  0.88885527  0.69742186     0.05300
C711        C  0.39490580  0.88583803  0.69561914    -0.07000
C712        C  0.41374666  0.90738242  0.67063802    -0.07700
C713        C  0.40836610  0.93153116  0.64726237    -0.02300
C714        C  0.38325803  0.93271065  0.64870087     0.04500
N715        N  0.37712317  0.95780369  0.62584858     0.67000
H716        H  0.34557221  0.91311210  0.67420925     0.15900
H717        H  0.43280450  0.90565559  0.66960551     0.15600
N718        N  0.40152704  0.86270868  0.71922601     0.74700
O719        O  0.35720414  0.92958511  0.60759285    -0.38700
O720        O  0.38761138  0.00694083  0.62739439    -0.38700
O721        O  0.40444564  0.82493765  0.71377919    -0.39400
O722        O  0.40826893  0.88446366  0.74447839    -0.39400
C723        C  0.29937678  0.92435411  0.79018893    -0.11700
C724        C  0.30866357  0.92069217  0.76142766     0.05300
C725        C  0.30643926  0.94940415  0.73774638    -0.07000
C726        C  0.29635451  0.98197146  0.74343474    -0.07700
C727        C  0.28675893  0.98481536  0.77188095    -0.02300
C728        C  0.28764519  0.95482653  0.79540419     0.04500
N729        N  0.27495353  0.95213820  0.82403332     0.67000
H730        H  0.30039275  0.90220627  0.80850385     0.15900
H731        H  0.29459531  0.00328334  0.72510439     0.15600
N732        N  0.31217123  0.94298700  0.70734539     0.74700
O733        O  0.28849410  0.95691836  0.84748779    -0.38700
O734        O  0.24880112  0.93827440  0.82601360    -0.38700
O735        O  0.29679483  0.89801978  0.69523948    -0.39400
O736        O  0.32917790  0.98340593  0.69139204    -0.39400
C737        C  0.27031247  0.71620153  0.77946733    -0.11700
C738        C  0.29972689  0.74402522  0.76998883     0.05300
C739        C  0.31364986  0.71624898  0.77070430    -0.03300
C740        C  0.29744245  0.66169164  0.77761591    -0.07700
C741        C  0.26834345  0.63415258  0.78764090    -0.02300
C742        C  0.25507069  0.66297923  0.78943133     0.04500
N743        N  0.22622000  0.63914324  0.80162589     0.67000
H744        H  0.25874721  0.73557624  0.77927215     0.15900
H745        H  0.30802134  0.64099223  0.77492997     0.15600
N746        N  0.34442303  0.74281878  0.76558415     0.74700
O747        O  0.21994913  0.61774357  0.82716771    -0.38700
O748        O  0.20797353  0.64444913  0.78840508    -0.38700
O749        O  0.36195323  0.78400253  0.78017557    -0.39400
O750        O  0.35416692  0.72126849  0.74975105    -0.39400
C751        C  0.45604455  0.81519557  0.89468388    -0.11700
C752        C  0.43337107  0.76562866  0.90601880     0.05300
C753        C  0.42489101  0.76106771  0.93619200    -0.07000
C754        C  0.43968512  0.80529044  0.95478329    -0.07700
C755        C  0.46264207  0.85488374  0.94371028    -0.02300
C756        C  0.47058219  0.85995649  0.91319501     0.04500
N757        N  0.49397122  0.90957066  0.90097175     0.67000
H758        H  0.46269312  0.81891820  0.87146207     0.15900
H759        H  0.93279345  0.79962367  0.97714854     0.15600
N760        N  0.40155125  0.71145654  0.94835731     0.74700
O761        O  0.51969323  0.92898488  0.90929370    -0.38700
O762        O  0.48948515  0.93057568  0.87933802    -0.38700
O763        O  0.90635031  0.67826013  0.95729796    -0.39400
O764        O  0.87672241  0.70358366  0.95105671    -0.39400
C765        C  0.29698764  0.60113960  0.84928962    -0.11700
C766        C  0.29201284  0.57742325  0.82120783     0.05300
C767        C  0.31444619  0.57629939  0.80677168    -0.07000
C768        C  0.34174946  0.60122460  0.81966362    -0.07700
C769        C  0.34685035  0.62315061  0.84846377    -0.02300
C770        C  0.32379648  0.62238599  0.86349337     0.04500
N771        N  0.32632161  0.63910403  0.89379679     0.67000
H772        H  0.27938168  0.60020412  0.86096676     0.15900
H773        H  0.35893453  0.60248240  0.80692899     0.15600
N774        N  0.30977764  0.54992350  0.77884385     0.74700
O775        O  0.32037437  0.67248559  0.90091478    -0.38700
O776        O  0.33024391  0.61484436  0.91399748    -0.38700
O777        O  0.32165389  0.57703360  0.75540029    -0.39400
O778        O  0.29947489  0.50079003  0.77867253    -0.39400
C779        C  0.43516119  0.62200407  0.81379494    -0.11700
C780        C  0.43942333  0.63342855  0.84436941     0.05300
C781        C  0.45889257  0.62554101  0.85956790    -0.07000
C782        C  0.47256242  0.60431257  0.84433009    -0.07700
C783        C  0.46702542  0.59032712  0.81410208    -0.02300
C784        C  0.44817459  0.59964557  0.79869921     0.04500
N785        N  0.44054196  0.58372021  0.76833088     0.67000
H786        H  0.42054355  0.62851794  0.80174778     0.15900
H787        H  0.48702537  0.59737666  0.85634914     0.15600
N788        N  0.46383730  0.63615295  0.89070803     0.74700
O789        O  0.43901202  0.61398698  0.75025659    -0.38700
O790        O  0.43076431  0.53643492  0.76086687    -0.38700
O791        O  0.44553588  0.60274989  0.90947335    -0.39400
O792        O  0.48843329  0.67394969  0.89937034    -0.39400
C793        C  0.91973616  0.71933038  0.38627064     0.03700
C794        C  0.93574339  0.69877807  0.37610584    -0.12500
C795        C  0.92228405  0.65224835  0.35915315     0.01200
C796        C  0.89249514  0.62561651  0.35345218    -0.11000
C797        C  0.87672111  0.64816299  0.36065347     0.03700
C798        C  0.89068991  0.69531305  0.37744461    -0.10400
H799        H  0.95868284  0.71952109  0.38101042     0.09300
H800        H  0.88202398  0.58813181  0.34175452     0.06800
H801        H  0.87965057  0.71469316  0.38292995     0.06700
C802        C  0.85120850  0.86997272  0.22470582     0.03700
C803        C  0.83633198  0.81757369  0.23530515    -0.12500
C804        C  0.81529726  0.79974814  0.25854323     0.01200
C805        C  0.80726968  0.83465781  0.26829121    -0.11000
C806        C  0.82060292  0.88617647  0.25578450     0.03700
C807        C  0.84421784  0.90451479  0.23597662    -0.10400
H808        H  0.84062613  0.79052205  0.22453160     0.09300
H809        H  0.79006996  0.82145240  0.28479486     0.06800
H810        H  0.85594943  0.94492358  0.22743586     0.06700
C811        C  0.65080220  0.17260082  0.35522507     0.03700
C812        C  0.65903968  0.22049279  0.34159370    -0.12500
C813        C  0.67648083  0.23881090  0.31546250     0.01200
C814        C  0.68582195  0.20729735  0.30347943    -0.11000
C815        C  0.68004285  0.16120185  0.31865328     0.03700
C816        C  0.66236313  0.14444626  0.34463111    -0.10400
H817        H  0.65175788  0.24358677  0.35195861     0.09300
H818        H  0.69781039  0.21857772  0.28256228     0.06800
H819        H  0.65812500  0.11048219  0.35739495     0.06700
C820        C  0.76280849  0.54811328  0.30740441     0.02800
C821        C  0.75158313  0.57387007  0.29204167     0.02800
C822        C  0.72382751  0.54157508  0.27952320    -0.17700
C823        C  0.70724834  0.48571083  0.28204882     0.02800
C824        C  0.71915613  0.46018175  0.29606118     0.02800
C825        C  0.74650380  0.49230193  0.30925102    -0.17700
H826        H  0.75567488  0.47347589  0.32073024     0.04900
H827        H  0.71492634  0.55985922  0.26705490     0.04900
C828        C  0.55362379  0.33052203  0.19573272     0.03700
C829        C  0.57953988  0.34563728  0.21023079    -0.12500
C830        C  0.59374496  0.39064425  0.22864836     0.01200
C831        C  0.58011037  0.41782436  0.23391233    -0.11000
C832        C  0.55354584  0.40223867  0.22100976     0.03700
C833        C  0.54062893  0.35874391  0.20144372    -0.10400
H834        H  0.58840138  0.32185478  0.20703548     0.09300
H835        H  0.58998040  0.45122983  0.24875139     0.06800
H836        H  0.52025110  0.34620589  0.19102163     0.06700
C837        C  0.56982719  0.86810371  0.19276276     0.03700
C838        C  0.55054236  0.81900205  0.20687126    -0.12500
C839        C  0.55985491  0.80143879  0.23017940     0.01200
C840        C  0.58853080  0.83506370  0.24013920    -0.11000
C841        C  0.60899990  0.88322034  0.22522885     0.03700
C842        C  0.59916143  0.89907522  0.20118037    -0.10400
H843        H  0.52816020  0.79447848  0.19969969     0.09300
H844        H  0.59491591  0.82268085  0.25928568     0.06800
H845        H  0.61393662  0.93575713  0.18914621     0.06700
C846        C  0.93883325  0.20521999  0.37715056     0.03700
C847        C  0.91244154  0.16574828  0.36417127    -0.12500
C848        C  0.89951154  0.17947992  0.34266578     0.01200
C849        C  0.91365230  0.23262846  0.33357997    -0.11000
C850        C  0.93956431  0.27308625  0.34675782     0.03700
C851        C  0.95203620  0.25903016  0.36887288    -0.10400
H852        H  0.90193350  0.12454675  0.37096009     0.09300
H853        H  0.90377634  0.24276737  0.31656390     0.06800
H854        H  0.97182419  0.28954746  0.37962400     0.06700
C855        C  0.97868805  0.56188140  0.29939677     0.02800
C856        C  0.49720256  0.58322169  0.27361701     0.02800
C857        C  0.50605443  0.55233993  0.26016689    -0.17700
C858        C  0.49797734  0.50253499  0.27180381     0.02800
C859        C  0.98007408  0.48201341  0.29787823     0.02800
C860        C  0.97145273  0.51320434  0.31157925    -0.17700
H861        H  0.95862624  0.49921471  0.33208785     0.04900
H862        H  0.52044902  0.56821863  0.24080345     0.04900
C863        C  0.78457414  0.05830035  0.29317238     0.02800
C864        C  0.77233551  0.01244811  0.27549924     0.02800
C865        C  0.74544024  0.99226826  0.26227946    -0.17700
C866        C  0.72887031  0.01383290  0.26792069     0.02800
C867        C  0.74101167  0.06000272  0.28613273     0.02800
C868        C  0.76875652  0.08133006  0.29840107    -0.17700
H869        H  0.77807281  0.11591875  0.31261151     0.04900
H870        H  0.73670965  0.95747906  0.24827870     0.04900
Zr871      Zr  0.50148389  0.03312100  0.09650203     2.17500
O872        O  0.52748615  0.05167213  0.14307799    -0.50800
O873        O  0.95508347  0.97933270  0.12605187    -0.74000
O874        O  0.50987141  0.11306758  0.12065437    -0.80800
O875        O  0.51782408  0.92659257  0.08178452    -0.82500
O876        O  0.50556417  0.16303466  0.08634814    -0.78100
O877        O  0.51733631  0.97923656  0.11767541    -0.89800
O878        O  0.91697913  0.93968107  0.09480119    -0.75700
O879        O  0.96713422  0.04328161  0.07145890    -0.85200
O880        O  0.96876055  0.94996524  0.07057321    -0.84900
O881        O  0.53186046  0.10897603  0.06455480    -0.71700
O882        O  0.53184919  0.02144320  0.06340104    -0.83800
Zr883      Zr  0.99732945  0.02962363  0.47812935     2.26400
Zr884      Zr  0.99674221  0.11762629  0.03857022     2.06300
Zr885      Zr  0.99924400  0.94025850  0.03652793     2.10000
Zr886      Zr  0.93633437  0.96369145  0.04438672     1.78800
O887        O  0.53531514  0.92188781  0.02196733    -0.92600
O888        O  0.90300677  0.99228153  0.04880837    -0.40400
O889        O  0.96632785  0.95321527  0.01014615    -0.77000
O890        O  0.96462358  0.03809033  0.01132998    -0.95700
O891        O  0.52898346  0.11046286  0.00431920    -0.89000
O892        O  0.52951914  0.01577282  0.00330194    -0.91900
C893        C  0.92768863  0.94967494  0.12094789     1.01900
C894        C  0.52202862  0.94424314  0.10859641     1.14800
C895        C  0.51003427  0.15420685  0.11307761     1.05600
O896        O  0.95911255  0.13533697  0.04567451    -0.94000
O897        O  0.98919983  0.14656796  0.49023800    -0.89800
O898        O  0.98800479  0.09161122  0.45488444    -0.82900
C899        C  0.98589436  0.13010393  0.46317638     1.12200
O900        O  0.59712800  0.13244417  0.06937163    -0.96000
Zr901      Zr  0.56081214  0.09514003  0.03050936     1.88900
O902        O  0.54186391  0.07120326  0.44922375    -0.72700
O903        O  0.53736694  0.21404600  0.03018324    -0.51900
O904        O  0.59298726  0.19175685  0.02818012    -0.96600
O905        O  0.59246253  0.06258240  0.02919140    -0.53800
O906        O  0.57972114  0.11453937  0.48081422    -0.73200
C907        C  0.56922704  0.10097092  0.45467886     0.99200
O908        O  0.97149151  0.01079096  0.43130598    -0.62000
O909        O  0.96323887  0.84756834  0.05007122    -0.56800
O910        O  0.98280934  0.94459095  0.45584135    -0.93500
O911        O  0.98075439  0.88993544  0.49197938    -0.91900
O912        O  0.90626363  0.86678904  0.04337585    -0.92300
O913        O  0.89987754  0.92712112  0.00563051    -0.91000
C914        C  0.97703097  0.89953169  0.46519494     1.18000
H915        H  0.95853098  0.91971767  0.08401504     0.34000
H916        H  0.95105112  0.04179618  0.00016098     0.44800
H917        H  0.53974014  0.00638994  0.49022965     0.38300
H918        H  0.54500982  0.14011296  0.07608109     0.34800
H919        H  0.88400715  0.95970012  0.05450037     0.26600
H920        H  0.52864407  0.23388142  0.03615267     0.32500
H921        H  0.58617233  0.20220679  0.01097704     0.38500
H922        H  0.90878966  0.85528091  0.06306356     0.32900
H923        H  0.97168344  0.82796752  0.04270155     0.31800
H924        H  0.53648287  0.92405665  0.99992059     0.33500
H925        H  0.59083608  0.04873623  0.00878798     0.32400
H926        H  0.91124732  0.93591186  0.98674764     0.36400
H927        H  0.98250337  0.00412232  0.41639074     0.29200
H928        H  0.51383849  0.04837177  0.15885196     0.33400
H929        H  0.58596286  0.11457251  0.08793743     0.36300
H930        H  0.96382015  0.84576366  0.07205908     0.28900
H931        H  0.95266175  0.97616848  0.43423605     0.41700
H932        H  0.94813284  0.11477839  0.06376536     0.31800
H933        H  0.90913479  0.01448137  0.06693421     0.39400
H934        H  0.58412540  0.03428510  0.54388264     0.31300
H935        H  0.55160822  0.22204225  0.04589586     0.31300
H936        H  0.54352234  0.08982392  0.14234033     0.31600
C937        C  0.96430671  0.18166570  0.45014782    -0.11700
C938        C  0.97729173  0.15495260  0.44045441     0.05300
C939        C  0.97890912  0.14795556  0.40933407    -0.07000
C940        C  0.96623361  0.16465566  0.38922945    -0.07700
C941        C  0.95253636  0.18956251  0.39919305    -0.02300
C942        C  0.95181642  0.19851497  0.42990103     0.04500
N943        N  0.93693756  0.22177788  0.44098160     0.67000
H944        H  0.96241472  0.18711739  0.47375261     0.15900
H945        H  0.96734463  0.15863889  0.36554199     0.15600
N946        N  0.99381814  0.12507502  0.39762021     0.74700
O947        O  0.90965050  0.19696580  0.43874951    -0.38700
O948        O  0.95045784  0.26392296  0.45603326    -0.38700
O949        O  0.98137784  0.08749081  0.37918562    -0.39400
O950        O  0.02069668  0.14762328  0.40205902    -0.39400
C951        C  0.81761647  0.08496471  0.33640968    -0.11700
C952        C  0.81428805  0.08422661  0.30542743     0.05300
C953        C  0.83934181  0.10975213  0.28663379    -0.07000
C954        C  0.86704269  0.13675823  0.29929504    -0.07700
C955        C  0.87039430  0.14013459  0.33035228    -0.02300
C956        C  0.84536182  0.11255693  0.34896757     0.04500
N957        N  0.84773102  0.11541838  0.38068550     0.67000
H958        H  0.79852099  0.06537427  0.35095917     0.15900
H959        H  0.88616070  0.15821572  0.28483708     0.15600
N960        N  0.83715672  0.11179040  0.25489268     0.74700
O961        O  0.85160894  0.15544087  0.39422525    -0.38700
O962        O  0.84289278  0.07566337  0.39537496    -0.38700
O963        O  0.82192045  0.12677529  0.24396374    -0.39400
O964        O  0.85350027  0.10574871  0.23784580    -0.39400
C965        C  0.93234586  0.34491181  0.33415851    -0.11700
C966        C  0.95186381  0.32939855  0.33757932     0.05300
C967        C  0.98160227  0.36646427  0.33006201    -0.07000
C968        C  0.99064238  0.41677574  0.31839124    -0.07700
C969        C  0.97041732  0.42985322  0.31223628    -0.02300
C970        C  0.94092668  0.39333046  0.32080287     0.04500
N971        N  0.91899481  0.40343701  0.31484253     0.67000
H972        H  0.90962412  0.31776846  0.34050622     0.15900
H973        H  0.51357945  0.44574599  0.31404171     0.15600
N974        N  0.00258731  0.35296535  0.33251559     0.74700
O975        O  0.91433954  0.41052322  0.28839130    -0.38700
O976        O  0.90199158  0.39901404  0.33552117    -0.38700
O977        O  0.99836584  0.31200675  0.31980751    -0.39400
O978        O  0.52575986  0.38415103  0.34692133    -0.39400
C979        C  0.55345353  0.91110680  0.12026396    -0.11700
C980        C  0.53384355  0.92403209  0.13030476     0.05300
C981        C  0.52695255  0.91960391  0.16114940    -0.07000
C982        C  0.53925069  0.90187006  0.18092450    -0.07700
C983        C  0.55841724  0.88831861  0.17078692    -0.02300
C984        C  0.56581787  0.89356951  0.14021813     0.04500
N985        N  0.58537969  0.88029409  0.12908107     0.67000
H986        H  0.55937265  0.91493539  0.09680771     0.15900
H987        H  0.53348936  0.89795492  0.20443810     0.15600
N988        N  0.00389726  0.92342522  0.17176862     0.74700
O989        O  0.57680962  0.83212910  0.12662811    -0.38700
O990        O  0.60983393  0.91619027  0.11820315    -0.38700
O991        O  0.97749245  0.89059993  0.16559511    -0.39400
O992        O  0.01048585  0.95816485  0.19140351    -0.39400
C993        C  0.65644274  0.97289355  0.23195032    -0.11700
C994        C  0.64018599  0.91696019  0.23526038     0.05300
C995        C  0.65405483  0.89443789  0.24878609    -0.07000
C996        C  0.68162572  0.92748523  0.26100020    -0.07700
C997        C  0.69826791  0.98286281  0.25661042    -0.02300
C998        C  0.68571784  0.00549579  0.24072520     0.04500
N999        N  0.70261380  0.06046765  0.23189754     0.67000
H1000       H  0.64679761  0.99169443  0.22161910     0.15900
H1001       H  0.69089795  0.90904012  0.27264405     0.15600
N1002       N  0.64179395  0.83838800  0.24830473     0.74700
O1003       O  0.69130036  0.08702694  0.23221468    -0.38700
O1004       O  0.72743522  0.08038330  0.21989818    -0.38700
O1005       O  0.63496226  0.81406887  0.22379000    -0.39400
O1006       O  0.64141440  0.81472121  0.27164012    -0.39400
C1007       C  0.52674735  0.70376933  0.22194809    -0.11700
C1008       C  0.54062691  0.74607432  0.24219001     0.05300
C1009       C  0.53835278  0.73417327  0.27297960    -0.07000
C1010       C  0.52379400  0.68107408  0.28257965    -0.07700
C1011       C  0.51004159  0.63870461  0.26235405    -0.02300
C1012       C  0.51135922  0.65062489  0.23163104     0.04500
N1013       N  0.49775200  0.60942723  0.20983457     0.67000
H1014       H  0.52848401  0.71198638  0.19822662     0.15900
H1015       H  0.52359074  0.67299341  0.30611804     0.15600
N1016       N  0.55037022  0.77540367  0.29482967     0.74700
O1017       O  0.47037157  0.58078363  0.20825277    -0.38700
O1018       O  0.51295565  0.60754838  0.18919921    -0.38700
O1019       O  0.54243603  0.80726776  0.29601169    -0.39400
O1020       O  0.56647592  0.77656020  0.31488040    -0.39400
C1021       C  0.52016117  0.24326546  0.12710567    -0.11700
C1022       C  0.51743084  0.19596303  0.13601468     0.05300
C1023       C  0.52461395  0.19239105  0.16578048    -0.07000
C1024       C  0.53606884  0.23646548  0.18466430    -0.07700
C1025       C  0.54005360  0.28425505  0.17515287    -0.02300
C1026       C  0.53143213  0.28711067  0.14616132     0.04500
N1027       N  0.53567045  0.33527947  0.13498812     0.67000
H1028       H  0.51481403  0.24749523  0.10461758     0.15900
H1029       H  0.54163177  0.23308514  0.20722866     0.15600
N1030       N  0.01962061  0.14308451  0.17780037     0.74700
O1031       O  0.56110706  0.37634678  0.13169954    -0.38700
O1032       O  0.51435108  0.33508652  0.12513176    -0.38700
O1033       O  0.04080856  0.14505785  0.18953777    -0.39400
O1034       O  0.99414014  0.10284282  0.18242616    -0.39400
C1035       C  0.50839440  0.39889272  0.23560779    -0.11700
C1036       C  0.53870514  0.42937996  0.23017842     0.05300
C1037       C  0.55470455  0.48448125  0.23672626    -0.07000
C1038       C  0.54090745  0.50586058  0.25121460    -0.07700
C1039       C  0.51076177  0.47552213  0.25684976    -0.02300
C1040       C  0.49413094  0.42182690  0.24758038     0.04500
N1041       N  0.96205387  0.38943551  0.24878725     0.67000
H1042       H  0.49559273  0.35688467  0.23048993     0.15900
H1043       H  0.55391449  0.54740346  0.25746995     0.15600
N1044       N  0.58475941  0.51986550  0.22805133     0.74700
O1045       O  0.94814130  0.40841289  0.23959720    -0.38700
O1046       O  0.94828184  0.34085743  0.25604310    -0.38700
O1047       O  0.59286174  0.52001306  0.20155720    -0.39400
O1048       O  0.60275725  0.55415677  0.24609416    -0.39400
C1049       C  0.62843130  0.43641965  0.27064914    -0.11700
C1050       C  0.62238420  0.40987361  0.24313342     0.05300
C1051       C  0.64444059  0.40525904  0.22986807    -0.07000
C1052       C  0.67111346  0.42666829  0.24423486    -0.07700
C1053       C  0.67738857  0.45636621  0.27034321    -0.02300
C1054       C  0.65596660  0.46249807  0.28332287     0.04500
N1055       N  0.66173600  0.49583358  0.30887298     0.67000
H1056       H  0.61176984  0.43785634  0.28266161     0.15900
H1057       H  0.68790041  0.42350208  0.23375270     0.15600
N1058       N  0.64132528  0.38285684  0.20092729     0.74700
O1059       O  0.64989070  0.52134717  0.31127222    -0.38700
O1060       O  0.67802135  0.49929707  0.32941256    -0.38700
O1061       O  0.63899931  0.40511617  0.17841623    -0.39400
O1062       O  0.64524507  0.34585210  0.19729393    -0.39400
C1063       C  0.63728004  0.18499297  0.40616486    -0.11700
C1064       C  0.63020503  0.15289207  0.38093927     0.05300
C1065       C  0.60292121  0.10387405  0.37988747    -0.07000
C1066       C  0.58329705  0.08776585  0.40404839    -0.07700
C1067       C  0.59026718  0.11996613  0.42930863    -0.02300
C1068       C  0.61769289  0.16905760  0.43025094     0.04500
N1069       N  0.62562078  0.20412198  0.45501414     0.67000
H1070       H  0.65808711  0.22296250  0.40703819     0.15900
H1071       H  0.56241336  0.04999209  0.40295195     0.15600
N1072       N  0.59435504  0.07118369  0.35393919     0.74700
O1073       O  0.64182534  0.20499911  0.47483399    -0.38700
O1074       O  0.62066472  0.24010645  0.45440473    -0.38700
O1075       O  0.58616329  0.02317281  0.35625861    -0.39400
O1076       O  0.59148562  0.08823194  0.32948804    -0.39400
C1077       C  0.66659871  0.30921777  0.30706203    -0.11700
C1078       C  0.68546344  0.29208366  0.30275258     0.05300
C1079       C  0.71370850  0.32951892  0.29100446    -0.07000
C1080       C  0.72285341  0.38266445  0.28665694    -0.07700
C1081       C  0.70547106  0.40113076  0.29576808    -0.02300
C1082       C  0.67680777  0.36322462  0.30613334     0.04500
N1083       N  0.65931540  0.37874811  0.32031242     0.67000
H1084       H  0.64435850  0.28121227  0.31458211     0.15900
H1085       H  0.74470061  0.41066642  0.27804253     0.15600
N1086       N  0.73432171  0.31592110  0.28544709     0.74700
O1087       O  0.63267689  0.35457921  0.31410597    -0.38700
O1088       O  0.66796218  0.40420318  0.34439087    -0.38700
O1089       O  0.74081665  0.31198443  0.25890665    -0.39400
O1090       O  0.74999963  0.31833780  0.30636492    -0.39400
C1091       C  0.69689680  0.05527051  0.30583634    -0.11700
C1092       C  0.72528453  0.08589580  0.29386012     0.05300
C1093       C  0.73859659  0.14125293  0.29005577    -0.07000
C1094       C  0.72344717  0.16440553  0.29814648    -0.07700
C1095       C  0.69448715  0.13353479  0.30891407    -0.02300
C1096       C  0.68102568  0.07780131  0.31221534     0.04500
N1097       N  0.65093239  0.04292164  0.32063318     0.67000
H1098       H  0.68654265  0.01297168  0.30937189     0.15900
H1099       H  0.73464442  0.20714618  0.29596667     0.15600
N1100       N  0.76734098  0.17456127  0.27748713     0.74700
O1101       O  0.63169777  0.04239212  0.30554832    -0.38700
O1102       O  0.64332286  0.00821633  0.34075185    -0.38700
O1103       O  0.77153166  0.17262941  0.24991921    -0.39400
O1104       O  0.78732264  0.21180813  0.29271811    -0.39400
C1105       C  0.85928505  0.88499828  0.17048371    -0.11700
C1106       C  0.87072183  0.88691737  0.19839097     0.05300
C1107       C  0.90044703  0.90715349  0.20078241    -0.07000
C1108       C  0.91843251  0.92599267  0.17520574    -0.07700
C1109       C  0.90729379  0.92556615  0.14705514    -0.02300
C1110       C  0.87706336  0.90364215  0.14486320     0.04500
N1111       N  0.86400365  0.90097889  0.11707500     0.67000
H1112       H  0.83632140  0.86926999  0.16863383     0.15900
H1113       H  0.94138373  0.94213414  0.17759765     0.15600
N1114       N  0.91280512  0.91046914  0.22913128     0.74700
O1115       O  0.85651957  0.86256196  0.09980159    -0.38700
O1116       O  0.85453215  0.92994959  0.11280115    -0.38700
O1117       O  0.92470969  0.88565282  0.23368996    -0.39400
O1118       O  0.91497665  0.94311166  0.24826013    -0.39400
C1119       C  0.79884190  0.92228093  0.28971878    -0.11700
C1120       C  0.80871970  0.91959324  0.26108223     0.05300
C1121       C  0.80665679  0.94854186  0.23741956    -0.07000
C1122       C  0.79626812  0.98067317  0.24311926    -0.07700
C1123       C  0.78616410  0.98259322  0.27149394    -0.02300
C1124       C  0.78673280  0.95204895  0.29483177     0.04500
N1125       N  0.77299291  0.94756347  0.32303210     0.67000
H1126       H  0.79963600  0.89985348  0.30801696     0.15900
H1127       H  0.79470025  0.00235697  0.22487336     0.15600
N1128       N  0.81294918  0.94291374  0.20705828     0.74700
O1129       O  0.78681514  0.95635573  0.34681793    -0.38700
O1130       O  0.74591522  0.92717470  0.32439013    -0.38700
O1131       O  0.79845408  0.89798396  0.19475532    -0.39400
O1132       O  0.83015933  0.98369184  0.19144848    -0.39400
C1133       C  0.77056226  0.71545664  0.27933859    -0.11700
C1134       C  0.80009098  0.74346846  0.27030170     0.05300
C1135       C  0.81402790  0.71573781  0.27100622    -0.03300
C1136       C  0.79773309  0.66101134  0.27727206    -0.07700
C1137       C  0.76851737  0.63326073  0.28692730    -0.02300
C1138       C  0.75521374  0.66200520  0.28883623     0.04500
N1139       N  0.72624230  0.63786960  0.30071698     0.67000
H1140       H  0.75899353  0.73482495  0.27914635     0.15900
H1141       H  0.80836714  0.64041478  0.27445205     0.15600
N1142       N  0.84488539  0.74251265  0.26650369     0.74700
O1143       O  0.71990173  0.61696441  0.32638958    -0.38700
O1144       O  0.70802440  0.64285541  0.28718377    -0.38700
O1145       O  0.86211746  0.78234531  0.28216186    -0.39400
O1146       O  0.85493044  0.72251967  0.24977020    -0.39400
C1147       C  0.95889768  0.81433285  0.39598851    -0.11700
C1148       C  0.93369649  0.76643171  0.40586468     0.05300
C1149       C  0.92293518  0.76311984  0.43503622    -0.07000
C1150       C  0.93785160  0.80666299  0.45407193    -0.07700
C1151       C  0.96319810  0.85435542  0.44440785    -0.02300
C1152       C  0.97358853  0.85841516  0.41493477     0.04500
N1153       N  0.99961284  0.90610450  0.40440334     0.67000
H1154       H  0.96738903  0.81721173  0.37361322     0.15900
H1155       H  0.42924191  0.80149625  0.47623434     0.15600
N1156       N  0.89719215  0.71538912  0.44586876     0.74700
O1157       O  0.02387666  0.92006557  0.41500824    -0.38700
O1158       O  0.99879801  0.93074000  0.38218908    -0.38700
O1159       O  0.39917780  0.67924371  0.45738544    -0.39400
O1160       O  0.37309668  0.71080183  0.44713531    -0.39400
C1161       C  0.79726852  0.60254219  0.34791703    -0.11700
C1162       C  0.79215929  0.57696820  0.32042994     0.05300
C1163       C  0.81456141  0.57529860  0.30640901    -0.07000
C1164       C  0.84191864  0.60109286  0.31920372    -0.07700
C1165       C  0.84713309  0.62455671  0.34760830    -0.02300
C1166       C  0.82415821  0.62483019  0.36209403     0.04500
N1167       N  0.82681835  0.64377615  0.39188072     0.67000
H1168       H  0.77973613  0.60243449  0.35918441     0.15900
H1169       H  0.85905481  0.60184850  0.30667957     0.15600
N1170       N  0.80982900  0.54766529  0.27893273     0.74700
O1171       O  0.82165098  0.67869513  0.39755914    -0.38700
O1172       O  0.82947942  0.61950477  0.41307676    -0.38700
O1173       O  0.82009424  0.57367265  0.25488611    -0.39400
O1174       O  0.80103809  0.49921988  0.27954055    -0.39400
C1175       C  0.93500770  0.62246967  0.31353064    -0.11700
C1176       C  0.93921372  0.63363427  0.34413651     0.05300
C1177       C  0.95839323  0.62506842  0.35937544    -0.07000
C1178       C  0.97171877  0.60316870  0.34417825    -0.07700
C1179       C  0.96615095  0.58927025  0.31394076    -0.02300
C1180       C  0.94772462  0.59956381  0.29844307     0.04500
N1181       N  0.94027802  0.58425909  0.26796512     0.67000
H1182       H  0.92065101  0.62962771  0.30145680     0.15900
H1183       H  0.98594309  0.59566681  0.35623192     0.15600
N1184       N  0.96344449  0.63583941  0.39049265     0.74700
O1185       O  0.93900852  0.61500536  0.25003454    -0.38700
O1186       O  0.93058411  0.53716320  0.26016520    -0.38700
O1187       O  0.94454165  0.60389251  0.40933870    -0.39400
O1188       O  0.98833971  0.67253198  0.39914675    -0.39400
C1189       C  0.91937333  0.71938129  0.88494968     0.03700
C1190       C  0.93528398  0.69884075  0.87454595    -0.12500
C1191       C  0.92172369  0.65242450  0.85748983     0.01200
C1192       C  0.89194042  0.62611448  0.85175940    -0.11000
C1193       C  0.87619509  0.64863732  0.85931247     0.03700
C1194       C  0.89027288  0.69553288  0.87637121    -0.10400
H1195       H  0.95822881  0.71948988  0.87940973     0.09300
H1196       H  0.88140599  0.58873399  0.83995691     0.06800
H1197       H  0.87929321  0.71484396  0.88229954     0.06700
C1198       C  0.85108142  0.87092662  0.72376299     0.03700
C1199       C  0.83621959  0.81829643  0.73412956    -0.12500
C1200       C  0.81488761  0.79990623  0.75716387     0.01200
C1201       C  0.80686025  0.83464063  0.76724184    -0.11000
C1202       C  0.82038473  0.88647895  0.75524095     0.03700
C1203       C  0.84405876  0.90519031  0.73551936    -0.10400
H1204       H  0.84061028  0.79143688  0.72326104     0.09300
H1205       H  0.78953063  0.82108550  0.78364002     0.06800
H1206       H  0.85584519  0.94587573  0.72739499     0.06700
C1207       C  0.65032891  0.17186260  0.85402902     0.03700
C1208       C  0.65847156  0.21982186  0.84059604    -0.12500
C1209       C  0.67596355  0.23852016  0.81452616     0.01200
C1210       C  0.68541103  0.20726543  0.80235693    -0.11000
C1211       C  0.67958474  0.16092664  0.81730297     0.03700
C1212       C  0.66186171  0.14382380  0.84323792    -0.10400
H1213       H  0.65116886  0.24277088  0.85112603     0.09300
H1214       H  0.69757134  0.21902816  0.78152882     0.06800
H1215       H  0.65767649  0.10980783  0.85590730     0.06700
C1216       C  0.76177694  0.54832047  0.80675445     0.02800
C1217       C  0.75059988  0.57372747  0.79086428     0.02800
C1218       C  0.72283959  0.54103949  0.77834846    -0.17700
C1219       C  0.70622231  0.48521432  0.78130204     0.02800
C1220       C  0.71812043  0.46001087  0.79572233     0.02800
C1221       C  0.74542850  0.49250110  0.80899143    -0.17700
H1222       H  0.75460436  0.47392950  0.82073543     0.04900
H1223       H  0.71396647  0.55893848  0.76547453     0.04900
C1224       C  0.55238084  0.32860856  0.69531415     0.03700
C1225       C  0.57814418  0.34353606  0.71005299    -0.12500
C1226       C  0.59254754  0.38916768  0.72802465     0.01200
C1227       C  0.57916889  0.41696828  0.73267960    -0.11000
C1228       C  0.55266003  0.40132252  0.71960232     0.03700
C1229       C  0.53962829  0.35737765  0.70040454    -0.10400
H1230       H  0.58678153  0.31930065  0.70727312     0.09300
H1231       H  0.58921994  0.45099824  0.74710564     0.06800
H1232       H  0.51939944  0.34503283  0.68968371     0.06700
C1233       C  0.56968159  0.86926634  0.69373236     0.03700
C1234       C  0.55055489  0.82023024  0.70798826    -0.12500
C1235       C  0.56013580  0.80252326  0.73093582     0.01200
C1236       C  0.58897609  0.83596957  0.74046583    -0.11000
C1237       C  0.60926555  0.88415442  0.72547942     0.03700
C1238       C  0.59912793  0.90014376  0.70180077    -0.10400
H1239       H  0.52808970  0.79566872  0.70107387     0.09300
H1240       H  0.59563303  0.82343065  0.75930805     0.06800
H1241       H  0.61379169  0.93684542  0.68975548     0.06700
C1242       C  0.93872727  0.20670583  0.87782679     0.03700
C1243       C  0.91210277  0.16735264  0.86520964    -0.12500
C1244       C  0.89944617  0.18092916  0.84330116     0.01200
C1245       C  0.91389772  0.23383475  0.83369348    -0.11000
C1246       C  0.93993165  0.27431958  0.84665147     0.03700
C1247       C  0.95235901  0.26036728  0.86891546    -0.10400
H1248       H  0.90127015  0.12631859  0.87248062     0.09300
H1249       H  0.90414354  0.24380270  0.81644665     0.06800
H1250       H  0.97228729  0.29086349  0.87946251     0.06700
C1251       C  0.97891418  0.56266691  0.79852434     0.02800
C1252       C  0.49748771  0.58383881  0.77332363     0.02800
C1253       C  0.50616357  0.55311992  0.75929218    -0.17700
C1254       C  0.49842421  0.50339723  0.77071335     0.02800
C1255       C  0.98067029  0.48314996  0.79709465     0.02800
C1256       C  0.97174415  0.51399746  0.81065751    -0.17700
H1257       H  0.95874627  0.49977786  0.83104930     0.04900
H1258       H  0.52014014  0.56905398  0.73963419     0.04900
C1259       C  0.78478184  0.05919068  0.79324217     0.02800
C1260       C  0.77269790  0.01335083  0.77558730     0.02800
C1261       C  0.74590769  0.99309673  0.76214559    -0.17700
C1262       C  0.72927198  0.01454293  0.76755055     0.02800
C1263       C  0.74123455  0.06071315  0.78572571     0.02800
C1264       C  0.76889219  0.08214922  0.79822195    -0.17700
H1265       H  0.77807821  0.11675880  0.81240084     0.04900
H1266       H  0.73731689  0.95835729  0.74812681     0.04900
Zr1267     Zr  0.50078559  0.03189762  0.59684121     2.17500
O1268       O  0.52891366  0.05499151  0.64228827    -0.50800
O1269       O  0.95619700  0.98240176  0.62626683    -0.74000
O1270       O  0.50806804  0.11113414  0.62077071    -0.80800
O1271       O  0.51848246  0.92748448  0.58196627    -0.82500
O1272       O  0.50376441  0.16078561  0.58620986    -0.78100
O1273       O  0.51593637  0.97728990  0.61837745    -0.89800
O1274       O  0.91802465  0.94534863  0.59492718    -0.75700
O1275       O  0.96871695  0.04689830  0.57123708    -0.85200
O1276       O  0.96937382  0.95242016  0.57080028    -0.84900
O1277       O  0.53069687  0.10764565  0.56463902    -0.71700
O1278       O  0.53123302  0.02035882  0.56367481    -0.83800
Zr1279     Zr  0.99612488  0.02881736  0.97799553     2.26400
Zr1280     Zr  0.99864558  0.12045315  0.53792508     2.06300
Zr1281     Zr  0.99962235  0.94132213  0.53718148     2.10000
Zr1282     Zr  0.93744750  0.96724265  0.54446192     1.78800
O1283       O  0.53169841  0.91424730  0.52150412    -0.92600
O1284       O  0.90566766  0.99938620  0.54735701    -0.40400
O1285       O  0.96702438  0.95482914  0.51061078    -0.77000
O1286       O  0.96620648  0.04068590  0.51102191    -0.95700
O1287       O  0.52787352  0.10864512  0.50446846    -0.89000
O1288       O  0.52888220  0.01439260  0.50396635    -0.91900
C1289       C  0.92880400  0.95450828  0.62104664     1.01900
C1290       C  0.52173128  0.94391746  0.60898624     1.14800
C1291       C  0.50808371  0.15204726  0.61302079     1.05600
O1292       O  0.96091365  0.13811703  0.54413699    -0.94000
O1293       O  0.98657157  0.14403594  0.99156659    -0.89800
O1294       O  0.98690564  0.09165653  0.95540849    -0.82900
C1295       C  0.98398902  0.12899593  0.96429149     1.12200
O1296       O  0.59583056  0.13274398  0.57015221    -0.96000
Zr1297     Zr  0.55996976  0.09432938  0.53086080     1.88900
O1298       O  0.54256206  0.07212826  0.94882996    -0.72700
O1299       O  0.53480323  0.21297542  0.53097544    -0.51900
O1300       O  0.59123607  0.19103831  0.52815432    -0.96600
O1301       O  0.59304899  0.06492423  0.52988882    -0.53800
O1302       O  0.58044589  0.11509321  0.98039771    -0.73200
C1303       C  0.56992294  0.10147476  0.95427241     0.99200
O1304       O  0.97047390  0.01154756  0.93117885    -0.62000
O1305       O  0.96410181  0.84884613  0.55154087    -0.56800
O1306       O  0.98138324  0.94388953  0.95531533    -0.93500
O1307       O  0.98130102  0.89011094  0.99072657    -0.91900
O1308       O  0.90555567  0.87057166  0.54632561    -0.92300
O1309       O  0.90145406  0.92966761  0.50524985    -0.91000
C1310       C  0.97665202  0.89932562  0.96421651     1.18000
H1311       H  0.95883196  0.92230577  0.58425755     0.34000
H1312       H  0.95278261  0.04456187  0.49970431     0.44800
H1313       H  0.54016545  0.00776908  0.98968841     0.38300
H1314       H  0.54370137  0.13895120  0.57613499     0.34800
H1315       H  0.88617264  0.96753180  0.55247064     0.26600
H1316       H  0.52549956  0.23161069  0.53735287     0.32500
H1317       H  0.58372107  0.20088792  0.51132137     0.38500
H1318       H  0.91623488  0.85832028  0.53490240     0.32900
H1319       H  0.97329035  0.82979771  0.54563504     0.31800
H1320       H  0.55052902  0.94794896  0.51692050     0.33500
H1321       H  0.59081243  0.04908721  0.50995167     0.32400
H1322       H  0.91263550  0.93275879  0.48699202     0.36400
H1323       H  0.98164848  0.00556753  0.91611435     0.29200
H1324       H  0.51567942  0.05174662  0.65854212     0.33400
H1325       H  0.58452448  0.11488325  0.58865441     0.36300
H1326       H  0.96385348  0.84813120  0.57361079     0.28900
H1327       H  0.95170622  0.97670862  0.93378742     0.41700
H1328       H  0.95109246  0.12092176  0.56334212     0.31800
H1329       H  0.91162205  0.02128549  0.56559285     0.39400
H1330       H  0.58242946  0.03043433  0.04209545     0.31300
H1331       H  0.54920692  0.22132674  0.54656750     0.31300
H1332       H  0.54438735  0.09342508  0.64071237     0.31600
C1333       C  0.95868815  0.17395686  0.95153245    -0.11700
C1334       C  0.97543807  0.15437943  0.94197414     0.05300
C1335       C  0.98134501  0.15529385  0.91103713    -0.07000
C1336       C  0.96949967  0.17315422  0.89058657    -0.07700
C1337       C  0.95209234  0.19096206  0.90024550    -0.02300
C1338       C  0.94681542  0.19158936  0.93100135     0.04500
N1339       N  0.92830577  0.20766569  0.94159656     0.67000
H1340       H  0.95350322  0.17312418  0.97501355     0.15900
H1341       H  0.97393399  0.17317235  0.86695589     0.15600
N1342       N  0.99985080  0.13942946  0.90003835     0.74700
O1343       O  0.90118090  0.17772361  0.93788872    -0.38700
O1344       O  0.93844874  0.24791318  0.95806343    -0.38700
O1345       O  0.99052642  0.10291923  0.88097973    -0.39400
O1346       O  0.02654766  0.16663724  0.90623089    -0.39400
C1347       C  0.81754290  0.08673495  0.83674155    -0.11700
C1348       C  0.81440988  0.08522034  0.80570146     0.05300
C1349       C  0.83957311  0.11026676  0.78705624    -0.07000
C1350       C  0.86717917  0.13742990  0.79991939    -0.07700
C1351       C  0.87033433  0.14167008  0.83099185    -0.02300
C1352       C  0.84519956  0.11479783  0.84949435     0.04500
N1353       N  0.84736352  0.11904868  0.88121336     0.67000
H1354       H  0.79835701  0.06760757  0.85116527     0.15900
H1355       H  0.88639470  0.15838243  0.78556373     0.15600
N1356       N  0.83761401  0.11168638  0.75523770     0.74700
O1357       O  0.85342291  0.16136702  0.89374893    -0.38700
O1358       O  0.84013217  0.07872614  0.89685066    -0.38700
O1359       O  0.82214958  0.12575737  0.74381787    -0.39400
O1360       O  0.85432659  0.10599567  0.73858440    -0.39400
C1361       C  0.93281251  0.34610042  0.83344650    -0.11700
C1362       C  0.95228546  0.33054452  0.83714943     0.05300
C1363       C  0.98201340  0.36742561  0.82957785    -0.07000
C1364       C  0.99115745  0.41771989  0.81774329    -0.07700
C1365       C  0.97098864  0.43090181  0.81143192    -0.02300
C1366       C  0.94146415  0.39437851  0.81986789     0.04500
N1367       N  0.91954755  0.40428621  0.81345973     0.67000
H1368       H  0.91006821  0.31910801  0.83975634     0.15900
H1369       H  0.51514780  0.44697896  0.81209490     0.15600
N1370       N  0.00285254  0.35362663  0.83209714     0.74700
O1371       O  0.91393049  0.40790301  0.78677094    -0.38700
O1372       O  0.90321339  0.40228685  0.83416553    -0.38700
O1373       O  0.99883006  0.31323400  0.81885428    -0.39400
O1374       O  0.52837858  0.38666724  0.84385222    -0.39400
C1375       C  0.55649889  0.91901708  0.62174508    -0.11700
C1376       C  0.53368756  0.92421946  0.63065941     0.05300
C1377       C  0.52338310  0.91225750  0.66047713    -0.07000
C1378       C  0.53550647  0.89462042  0.68049367    -0.07700
C1379       C  0.55808948  0.88894875  0.67155703    -0.02300
C1380       C  0.56885054  0.90184066  0.64193652     0.04500
N1381       N  0.59173043  0.89637516  0.63185438     0.67000
H1382       H  0.56488773  0.92860672  0.59901644     0.15900
H1383       H  0.52713955  0.88508161  0.70323644     0.15600
N1384       N  0.00187885  0.92038401  0.67148658     0.74700
O1385       O  0.58655399  0.85067439  0.62745228    -0.38700
O1386       O  0.61597608  0.93698695  0.62373552    -0.38700
O1387       O  0.97613192  0.88816793  0.66301150    -0.39400
O1388       O  0.00674048  0.95280490  0.69202057    -0.39400
C1389       C  0.65694188  0.97370030  0.73157443    -0.11700
C1390       C  0.64060106  0.91777593  0.73502594     0.05300
C1391       C  0.65454163  0.89514317  0.74824051    -0.07000
C1392       C  0.68213471  0.92811298  0.76040194    -0.07700
C1393       C  0.69877280  0.98349591  0.75603613    -0.02300
C1394       C  0.68629771  0.00616035  0.74007056     0.04500
N1395       N  0.70334501  0.06098697  0.73092434     0.67000
H1396       H  0.64730621  0.99261145  0.72137155     0.15900
H1397       H  0.69141052  0.90962096  0.77198588     0.15600
N1398       N  0.64234335  0.83912166  0.74743003     0.74700
O1399       O  0.69213334  0.08771076  0.73071225    -0.38700
O1400       O  0.72825250  0.08057752  0.71920407    -0.38700
O1401       O  0.63526071  0.81512558  0.72281225    -0.39400
O1402       O  0.64231366  0.81520971  0.77048405    -0.39400
C1403       C  0.52643801  0.70505859  0.72247718    -0.11700
C1404       C  0.54096819  0.74707322  0.74283619     0.05300
C1405       C  0.53925615  0.73472482  0.77350576    -0.07000
C1406       C  0.52456085  0.68145952  0.78280770    -0.07700
C1407       C  0.51022747  0.63943475  0.76244314    -0.02300
C1408       C  0.51098665  0.65179439  0.73189732     0.04500
N1409       N  0.49678126  0.61092367  0.70999535     0.67000
H1410       H  0.52773939  0.71355989  0.69883197     0.15900
H1411       H  0.52473413  0.67294469  0.80621060     0.15600
N1412       N  0.55202978  0.77563054  0.79554239     0.74700
O1413       O  0.46943249  0.58438510  0.70810917    -0.38700
O1414       O  0.51162088  0.60822983  0.68926066    -0.38700
O1415       O  0.54487573  0.80858721  0.79727103    -0.39400
O1416       O  0.56818759  0.77567004  0.81513134    -0.39400
C1417       C  0.52010420  0.24254787  0.62627192    -0.11700
C1418       C  0.51536772  0.19388628  0.63582302     0.05300
C1419       C  0.52086957  0.18912958  0.66609005    -0.07000
C1420       C  0.53287429  0.23347708  0.68488506    -0.07700
C1421       C  0.53881529  0.28244013  0.67475572    -0.02300
C1422       C  0.53186194  0.28657874  0.64521291     0.04500
N1423       N  0.53838944  0.33614086  0.63344355     0.67000
H1424       H  0.51615173  0.24769169  0.60336423     0.15900
H1425       H  0.53724098  0.22945160  0.70784363     0.15600
N1426       N  0.01849992  0.14365461  0.67781282     0.74700
O1427       O  0.56432279  0.37631512  0.63281920    -0.38700
O1428       O  0.51891044  0.33822097  0.62055034    -0.38700
O1429       O  0.03826434  0.14391090  0.69170538    -0.39400
O1430       O  0.99260731  0.10359158  0.68004549    -0.39400
C1431       C  0.50778991  0.39883714  0.73414297    -0.11700
C1432       C  0.53800482  0.42898291  0.72820573     0.05300
C1433       C  0.55419304  0.48435475  0.73390638    -0.07000
C1434       C  0.54078821  0.50639226  0.74852262    -0.07700
C1435       C  0.51078595  0.47623162  0.75505582    -0.02300
C1436       C  0.49385107  0.42232295  0.74618284     0.04500
N1437       N  0.96303053  0.39114662  0.74801229     0.67000
H1438       H  0.49485061  0.35665769  0.72946315     0.15900
H1439       H  0.55397839  0.54814318  0.75431144     0.15600
N1440       N  0.58404370  0.51915236  0.72434206     0.74700
O1441       O  0.94920756  0.41027843  0.73878493    -0.38700
O1442       O  0.94918589  0.34246720  0.75505698    -0.38700
O1443       O  0.59159584  0.51668778  0.69800287    -0.39400
O1444       O  0.60242051  0.55525659  0.74136337    -0.39400
C1445       C  0.62734581  0.43580319  0.76985142    -0.11700
C1446       C  0.62119064  0.40859526  0.74255398     0.05300
C1447       C  0.64316827  0.40360884  0.72945917    -0.07000
C1448       C  0.66992342  0.42539209  0.74373546    -0.07700
C1449       C  0.67630550  0.45561596  0.76965345    -0.02300
C1450       C  0.65490377  0.46194053  0.78252293     0.04500
N1451       N  0.66071416  0.49545010  0.80799695     0.67000
H1452       H  0.61072898  0.43765800  0.78167002     0.15900
H1453       H  0.68665904  0.42198276  0.73334185     0.15600
N1454       N  0.63987093  0.38043783  0.70072717     0.74700
O1455       O  0.64885871  0.52095167  0.81034560    -0.38700
O1456       O  0.67697175  0.49892744  0.82857498    -0.38700
O1457       O  0.63776756  0.40245637  0.67796072    -0.39400
O1458       O  0.64334026  0.34280788  0.69753581    -0.39400
C1459       C  0.63795964  0.18372076  0.90553253    -0.11700
C1460       C  0.63010792  0.15223890  0.87997639     0.05300
C1461       C  0.60247899  0.10402435  0.87886996    -0.07000
C1462       C  0.58316454  0.08819581  0.90326147    -0.07700
C1463       C  0.59085347  0.11987531  0.92885120    -0.02300
C1464       C  0.61873159  0.16801092  0.92990607     0.04500
N1465       N  0.62752761  0.20237461  0.95509510     0.67000
H1466       H  0.65909749  0.22104294  0.90643662     0.15900
H1467       H  0.56195327  0.05110801  0.90206170     0.15600
N1468       N  0.59327790  0.07197729  0.85265057     0.74700
O1469       O  0.64310660  0.20059374  0.97468237    -0.38700
O1470       O  0.62403093  0.24020096  0.95512518    -0.38700
O1471       O  0.58553818  0.02414297  0.85422405    -0.39400
O1472       O  0.58929343  0.08923953  0.82891249    -0.39400
C1473       C  0.66588797  0.30872223  0.80634291    -0.11700
C1474       C  0.68493844  0.29197647  0.80215196     0.05300
C1475       C  0.71327544  0.32980829  0.79080526    -0.07000
C1476       C  0.72228503  0.38292100  0.78662595    -0.07700
C1477       C  0.70463992  0.40097301  0.79549790    -0.02300
C1478       C  0.67587699  0.36264083  0.80547279     0.04500
N1479       N  0.65790217  0.37755371  0.81913414     0.67000
H1480       H  0.64360377  0.28039438  0.81362792     0.15900
H1481       H  0.74419330  0.41118834  0.77826951     0.15600
N1482       N  0.73407415  0.31657715  0.78546874     0.74700
O1483       O  0.63139163  0.35305741  0.81233035    -0.38700
O1484       O  0.66593837  0.40277840  0.84331969    -0.38700
O1485       O  0.74161717  0.31471935  0.75902837    -0.39400
O1486       O  0.74868068  0.31664549  0.80682083    -0.39400
C1487       C  0.69687316  0.05556762  0.80487612    -0.11700
C1488       C  0.72535992  0.08641554  0.79318260     0.05300
C1489       C  0.73857214  0.14173682  0.78934181    -0.07000
C1490       C  0.72321227  0.16462518  0.79710649    -0.07700
C1491       C  0.69416429  0.13351471  0.80758524    -0.02300
C1492       C  0.68080344  0.07780562  0.81088977     0.04500
N1493       N  0.65064411  0.04266532  0.81900229     0.67000
H1494       H  0.68659712  0.01330132  0.80846011     0.15900
H1495       H  0.73433037  0.20735184  0.79495439     0.15600
N1496       N  0.76744867  0.17529281  0.77712887     0.74700
O1497       O  0.63149573  0.04187105  0.80361093    -0.38700
O1498       O  0.64293309  0.00795983  0.83914637    -0.38700
O1499       O  0.77204091  0.17323084  0.74967748    -0.39400
O1500       O  0.78713233  0.21280011  0.79248170    -0.39400
C1501       C  0.86216165  0.90186606  0.67142823    -0.11700
C1502       C  0.87076522  0.88892362  0.69739127     0.05300
C1503       C  0.89808017  0.89564301  0.69791786    -0.07000
C1504       C  0.91662001  0.91657544  0.67272506    -0.07700
C1505       C  0.90831155  0.93094314  0.64689652    -0.02300
C1506       C  0.88050626  0.92261324  0.64633258     0.04500
N1507       N  0.87098170  0.93715108  0.62098393     0.67000
H1508       H  0.84110787  0.89651298  0.67077731     0.15900
H1509       H  0.93777385  0.92231337  0.67352512     0.15600
N1510       N  0.90769786  0.88340041  0.72415382     0.74700
O1511       O  0.85375615  0.90171178  0.60299478    -0.38700
O1512       O  0.87507779  0.98253167  0.61984623    -0.38700
O1513       O  0.91469358  0.85018478  0.72297128    -0.39400
O1514       O  0.91240720  0.91013243  0.74754222    -0.39400
C1515       C  0.79905825  0.92290164  0.78957671    -0.11700
C1516       C  0.80863221  0.91998974  0.76082475     0.05300
C1517       C  0.80655799  0.94906690  0.73727237    -0.07000
C1518       C  0.79645503  0.98154276  0.74313667    -0.07700
C1519       C  0.78661455  0.98368928  0.77159928    -0.02300
C1520       C  0.78723291  0.95310956  0.79489242     0.04500
N1521       N  0.77386380  0.94911489  0.82326066     0.67000
H1522       H  0.79987025  0.90032406  0.80777878     0.15900
H1523       H  0.79480823  0.00320703  0.72493238     0.15600
N1524       N  0.81237437  0.94295060  0.70683613     0.74700
O1525       O  0.78786206  0.95759975  0.84688499    -0.38700
O1526       O  0.74692268  0.92989565  0.82491972    -0.38700
O1527       O  0.79714229  0.89806247  0.69461595    -0.39400
O1528       O  0.82957331  0.98346412  0.69103763    -0.39400
C1529       C  0.76968603  0.71524104  0.77686938    -0.11700
C1530       C  0.79938784  0.74333509  0.76850026     0.05300
C1531       C  0.81327777  0.71558874  0.76964733    -0.03300
C1532       C  0.79688294  0.66086101  0.77601127    -0.07700
C1533       C  0.76753556  0.63308001  0.78527420    -0.02300
C1534       C  0.75416714  0.66178860  0.78639953     0.04500
N1535       N  0.72495188  0.63767949  0.79752919     0.67000
H1536       H  0.75813458  0.73462855  0.77618386     0.15900
H1537       H  0.80756497  0.64032266  0.77358470     0.15600
N1538       N  0.84418591  0.74238927  0.76556012     0.74700
O1539       O  0.71819454  0.61792146  0.82347927    -0.38700
O1540       O  0.70688076  0.64162670  0.78293905    -0.38700
O1541       O  0.86122186  0.78270810  0.78100153    -0.39400
O1542       O  0.85445479  0.72205143  0.74946142    -0.39400
C1543       C  0.95658832  0.81565304  0.89394784    -0.11700
C1544       C  0.93344544  0.76608086  0.90477646     0.05300
C1545       C  0.92485637  0.76079512  0.93496493    -0.07000
C1546       C  0.93974242  0.80443350  0.95396542    -0.07700
C1547       C  0.96295112  0.85411790  0.94330816    -0.02300
C1548       C  0.97121596  0.85977568  0.91288548     0.04500
N1549       N  0.99506345  0.90935741  0.90120559     0.67000
H1550       H  0.96346751  0.81991744  0.87077597     0.15900
H1551       H  0.43289399  0.80096625  0.97799794     0.15600
N1552       N  0.90134574  0.71099373  0.94674451     0.74700
O1553       O  0.02083457  0.92406066  0.90665846    -0.38700
O1554       O  0.99056300  0.93436911  0.88204499    -0.38700
O1555       O  0.40675418  0.67920335  0.95924704    -0.39400
O1556       O  0.37681300  0.70366824  0.95244524    -0.39400
C1557       C  0.79655772  0.60306269  0.84713982    -0.11700
C1558       C  0.79124443  0.57736651  0.81964875     0.05300
C1559       C  0.81358241  0.57565885  0.80548434    -0.07000
C1560       C  0.84104283  0.60156416  0.81807854    -0.07700
C1561       C  0.84647831  0.62511708  0.84647839    -0.02300
C1562       C  0.82357628  0.62545939  0.86113471     0.04500
N1563       N  0.82646399  0.64473362  0.89087800     0.67000
H1564       H  0.77910382  0.60302075  0.85854478     0.15900
H1565       H  0.85808976  0.60230714  0.80538273     0.15600
N1566       N  0.80869699  0.54795131  0.77800813     0.74700
O1567       O  0.82150776  0.67993832  0.89651787    -0.38700
O1568       O  0.82935985  0.62081202  0.91210125    -0.38700
O1569       O  0.81917633  0.57391689  0.75397759    -0.39400
O1570       O  0.79959100  0.49935446  0.77862839    -0.39400
C1571       C  0.93448188  0.62197388  0.81209707    -0.11700
C1572       C  0.93857149  0.63340355  0.84268951     0.05300
C1573       C  0.95779328  0.62515655  0.85812724    -0.07000
C1574       C  0.97134546  0.60350325  0.84312855    -0.07700
C1575       C  0.96600124  0.58955593  0.81288978    -0.02300
C1576       C  0.94750017  0.59941781  0.79719996     0.04500
N1577       N  0.94038231  0.58418057  0.76667225     0.67000
H1578       H  0.92010824  0.62886965  0.79985216     0.15900
H1579       H  0.98561796  0.59630860  0.85533048     0.15600
N1580       N  0.96271584  0.63609959  0.88924840     0.74700
O1581       O  0.93963551  0.61522476  0.74851696    -0.38700
O1582       O  0.93054607  0.53698711  0.75895952    -0.38700
O1583       O  0.94343018  0.60497589  0.90805166    -0.39400
O1584       O  0.98771753  0.67212976  0.89801935    -0.39400
loop_ 
_geom_bond_atom_site_label_1 
_geom_bond_atom_site_label_2 
_geom_bond_distance 
_geom_bond_site_symmetry_2 
_ccdc_geom_bond_type 
C1            C2   1.405       .  A
C1            C6   1.409       .  A
C1          C356   1.481       .  S
C2            C3   1.400       .  A
C2            H7   1.083       .  S
C3            C4   1.401       .  A
C3          C384   1.487       .  S
C4            C5   1.407       .  A
C4            H8   1.083       .  S
C5            C6   1.411       .  A
C5          C373   1.504       .  S
C6            H9   1.081       .  S
C10          C11   1.399       .  A
C10          C15   1.392       .  A
C10         C314   1.471       .  S
C11          C12   1.411       .  A
C11          H16   1.082       .  S
C12          C13   1.419       .  A
C12         C342   1.509       .  S
C13          C14   1.414       .  A
C13          H17   1.081       .  S
C14          C15   1.400       .  A
C14         C328   1.495       .  S
C15          H18   1.084       .  S
C19          C20   1.394       .  A
C19          C24   1.397       .  A
C19         C272   1.478       .  S
C20          C21   1.408       .  A
C20          H25   1.082       .  S
C21          C22   1.414       .  A
C21         C286   1.508       .  S
C22          C23   1.419       .  A
C22          H26   1.080       .  S
C23          C24   1.408       .  A
C23         C303   1.503       .  S
C24          H27   1.081       .  S
C28          C29   1.422       .  A
C28          C33   1.406       .  A
C28         C370   1.481       .  S
C29          C30   1.407       .  A
C29         C345   1.510       .  S
C30          C31   1.408       .  A
C30          H35   1.083       .  S
C31          C32   1.417       .  A
C31         C261   1.477       .  S
C32          C33   1.406       .  A
C32         C289   1.506       .  S
C33          H34   1.085       .  S
C36          C37   1.407       .  A
C36          C41   1.409       .  A
C36         C233   1.489       .  S
C37          C38   1.405       .  A
C37          H42   1.081       .  S
C38          C39   1.407       .  A
C38         C258   1.506       .  S
C39          C40   1.404       .  A
C39          H43   1.076       .  S
C40          C41   1.408       .  A
C40         C244   1.500       .  S
C41          H44   1.083       .  S
C45          C46   1.401       .  A
C45          C50   1.406       .  A
C45         C191   1.482       .  S
C46          C47   1.401       .  A
C46          H51   1.084       .  S
C47          C48   1.405       .  A
C47         C216   1.493       .  S
C48          C49   1.413       .  A
C48          H52   1.077       .  S
C49          C50   1.414       .  A
C49         C202   1.510       .  S
C50          H53   1.082       .  S
C54          C55   1.407       .  A
C54          C59   1.412       .  A
C54         C149   1.484       .  S
C55          C56   1.402       .  A
C55          H60   1.084       .  S
C56          C57   1.398       .  A
C56         C163   1.485       .  S
C57          C58   1.405       .  A
C57          H61   1.084       .  S
C58          C59   1.411       .  A
C58         C174   1.496       .  S
C59          H62   1.083       .  S
C63          C68   1.403       .  A
C63         C856   1.415       .  A
C63         C387   1.487       .  S
C64          C65   1.404   1_655  A
C64         C855   1.415       .  A
C64         C219   1.496   1_655  S
C65          C66   1.410   1_455  A
C65          H70   1.083       .  S
C66         C859   1.424       .  A
C66         C247   1.497   1_655  S
C67          C68   1.408       .  A
C67         C858   1.424       .  A
C67         C177   1.498       .  S
C68          H69   1.084       .  S
C71          C72   1.406       .  A
C71          C76   1.404       .  A
C71         C160   1.485       .  S
C72          C73   1.397   1_545  A
C72         C331   1.480   1_545  S
C73          C74   1.408   1_565  A
C73          H78   1.085       .  S
C74          C75   1.428       .  A
C74         C205   1.502   1_545  S
C75          C76   1.412       .  A
C75         C300   1.496       .  S
C76          H77   1.084       .  S
Zr79         O80   2.437       .  S
Zr79         O82   2.451       .  S
Zr79         O85   2.439   1_545  S
Zr79        O873   2.434   1_445  S
Zr79         O89   2.407       .  S
Zr79         O90   2.394       .  S
Zr79        O879   2.383   1_455  S
Zr79        O880   2.383   1_445  S
O80         H136   0.989       .  S
O80         H144   0.990       .  S
O81        Zr871   2.431   1_565  S
O81         C101   1.284       .  A
O82         C103   1.287       .  A
O83        Zr885   2.438   1_455  S
O83         C102   1.286       .  A
O84        Zr884   2.431   1_455  S
O84         C103   1.285       .  A
O85         C102   1.286       .  A
O86         Zr94   2.419       .  S
O86         C101   1.281       .  A
O87         Zr92   2.397       .  S
O87         Zr94   2.379   1_545  S
O87        Zr871   2.382       .  S
O88         Zr93   2.391       .  S
O88         Zr94   2.380       .  S
O88        Zr871   2.383   1_565  S
O88         H123   0.960       .  S
O89        Zr109   2.393       .  S
O89        Zr884   2.402   1_455  S
O89         H126   0.966       .  S
O90        Zr109   2.384       .  S
O90        Zr885   2.387   1_445  S
Zr91        O116   2.442       .  S
Zr91        O118   2.442   1_545  S
Zr91        O106   2.441       .  S
Zr91        O902   2.445       .  S
Zr91        O493   2.403   1_545  S
Zr91        O494   2.408       .  S
Zr91       O1287   2.380       .  S
Zr91       O1288   2.385       .  S
Zr92        O104   2.435       .  S
Zr92        O903   2.435       .  S
Zr92        O876   2.435       .  S
Zr92        O501   2.440   1_554  S
Zr92         O98   2.396       .  S
Zr92        O881   2.401       .  S
Zr92        O891   2.396       .  S
Zr93        O117   2.439       .  S
Zr93        O887   2.438       .  S
Zr93        O875   2.437       .  S
Zr93        O515   2.423   1_554  S
Zr93         O97   2.394       .  S
Zr93        O882   2.386   1_565  S
Zr93        O892   2.397   1_565  S
Zr94        O120   2.435       .  S
Zr94        O121   2.437       .  S
Zr94         O96   2.436       .  S
Zr94         O97   2.389       .  S
Zr94         O98   2.392   1_565  S
O95        Zr885   2.435   1_455  S
O95         H132   0.990       .  S
O96         H127   0.990       .  S
O96         H141   0.990   1_565  S
O97        Zr487   2.402   1_564  S
O98        Zr487   2.409   1_554  S
O98         H124   0.964   1_554  S
O99        Zr109   2.380       .  S
O99       Zr1279   2.380   1_454  S
O99        Zr884   2.395   1_455  S
O100       Zr109   2.382       .  S
O100      Zr1279   2.387   1_454  S
O100       Zr885   2.396   1_445  S
O100        H521   0.964   1_554  S
C101        C317   1.491       .  S
C102        C188   1.486       .  S
C103        C230   1.500       .  S
O104        H140   0.990       .  S
O105       Zr488   2.444       .  S
O105        C107   1.288       .  A
O106        C107   1.286       .  A
C107        C146   1.501       .  S
O108       Zr109   2.434       .  S
O108        H137   0.990       .  S
Zr109       O112   2.435       .  S
Zr109       O113   2.438       .  S
Zr109       O510   2.408   1_554  S
O110       Zr883   2.441   1_455  S
O110        C115   1.286       .  A
O111       Zr884   2.435   1_455  S
O111        H128   0.990       .  S
O111        H143   0.990       .  S
O112        H129   0.990       .  S
O113        H133   0.990       .  S
O113        H538   0.990       .  S
O114       Zr505   2.409       .  S
O114        C115   1.279       .  A
C115        C275   1.481       .  S
O116        H135   0.990       .  S
O116        H139   0.990   1_545  S
O117        H131   0.990       .  S
O117        H138   0.990       .  S
O118        C122   1.284       .  A
O119       Zr489   2.429       .  S
O119        C122   1.284       .  A
O120        H130   0.990       .  S
O121        H134   0.990   1_554  S
C122        C359   1.478       .  S
H125        O496   0.963       .  S
H142        O509   0.990       .  S
C145        C146   1.411       .  A
C145        C150   1.406       .  A
C145        H152   1.083       .  S
C146        C147   1.422       .  A
C147        C148   1.405       .  A
C147        N154   1.434       .  S
C148        C149   1.400       .  A
C148        H153   1.084       .  S
C149        C150   1.407       .  A
C150        N151   1.431       .  S
N151        O155   1.262       .  A
N151        O156   1.262       .  A
N154        O158   1.262       .  A
N154        O157   1.263       .  A
C159        C160   1.403       .  A
C159        C164   1.402       .  A
C159        H166   1.084       .  S
C160        C161   1.414       .  A
C161        C162   1.403       .  A
C161        N168   1.435       .  S
C162        C163   1.404       .  A
C162        H167   1.084       .  S
C163        C164   1.410       .  A
C164        N165   1.429       .  S
N165        O169   1.262       .  A
N165        O170   1.262       .  A
N168        O172   1.263       .  A
N168        O171   1.262       .  A
C173        C174   1.405       .  A
C173        C178   1.397       .  A
C173        H180   1.084       .  S
C174        C175   1.415       .  A
C175        C176   1.410       .  A
C175        N182   1.432       .  S
C176        C177   1.409       .  A
C176        H973   1.083       .  S
C177        C178   1.415       .  A
C178        N179   1.433       .  S
N179        O183   1.262       .  A
N179        O184   1.262       .  A
H181        C968   1.083   1_455  S
N182        O978   1.262       .  A
N182        O185   1.262       .  A
O186        N974   1.262       .  A
C187        C188   1.408       .  A
C187        C192   1.405       .  A
C187        H194   1.084       .  S
C188        C189   1.414       .  A
C189        C190   1.400       .  A
C189        N988   1.430       .  S
C190        C191   1.402       .  A
C190        H195   1.084       .  S
C191        C192   1.409       .  A
C192        N193   1.430       .  S
N193        O197   1.262       .  A
N193        O198   1.262       .  A
N196        C981   1.431       .  S
N196        O200   1.262       .  A
N196        O199   1.262       .  A
C201        C202   1.413       .  A
C201        C206   1.410   1_565  A
C201        H208   1.081       .  S
C202        C203   1.420       .  A
C203        C204   1.397       .  A
C203        N210   1.434       .  S
C204        C205   1.405       .  A
C204        H209   1.084       .  S
C205        C206   1.415   1_565  A
C206        N207   1.434       .  S
N207        O211   1.263       .  A
N207        O212   1.262       .  A
N210        O214   1.263       .  A
N210        O213   1.262       .  A
C215        C216   1.406       .  A
C215        C220   1.402       .  A
C215        H222   1.084       .  S
C216        C217   1.414       .  A
C217        C218   1.402       .  A
C217        N224   1.432       .  S
C218        C219   1.406       .  A
C218        H223   1.083       .  S
C219        C220   1.415       .  A
C220        N221   1.432   1_455  S
N221        O225   1.261       .  A
N221        O226   1.262   1_655  A
N224        O228   1.262       .  A
N224        O227   1.262       .  A
C229        C230   1.411       .  A
C229        C234   1.404       .  A
C229        H236   1.083       .  S
C230        C231   1.419       .  A
C231        C232   1.402       .  A
C231       N1030   1.430       .  S
C232        C233   1.402       .  A
C232        H237   1.084       .  S
C233        C234   1.411       .  A
C234        N235   1.432       .  S
N235        O239   1.262       .  A
N235        O240   1.262       .  A
N238       C1023   1.431       .  S
N238        O242   1.262       .  A
N238        O241   1.263       .  A
C243        C244   1.409       .  A
C243        C248   1.408   1_455  A
C243        H250   1.082   1_455  S
C244        C245   1.418       .  A
C245        C246   1.397       .  A
C245        N252   1.435       .  S
C246        C247   1.403       .  A
C246        H251   1.084       .  S
C247        C248   1.416   1_455  A
C248       N1041   1.435       .  S
N249       C1040   1.434       .  S
N249        O253   1.262       .  A
N249        O254   1.263       .  A
N252        O256   1.263       .  A
N252        O255   1.262       .  A
C257        C258   1.410       .  A
C257        C262   1.397       .  A
C257        H264   1.081       .  S
C258        C259   1.423       .  A
C259        C260   1.405       .  A
C259        N266   1.432       .  S
C260        C261   1.400       .  A
C260        H265   1.084       .  S
C261        C262   1.414       .  A
C262        N263   1.443       .  S
N263        O267   1.263       .  A
N263        O268   1.262       .  A
N266        O270   1.262       .  A
N266        O269   1.262       .  A
C271        C272   1.401       .  A
C271        C276   1.398       .  A
C271        H278   1.084       .  S
C272        C273   1.410       .  A
C273        C274   1.401       .  A
C273        N280   1.431       .  S
C274        C275   1.405       .  A
C274        H279   1.084       .  S
C275        C276   1.415       .  A
C276        N277   1.430       .  S
N277        O281   1.262       .  A
N277        O282   1.262       .  A
N280        O284   1.262       .  A
N280        O283   1.262       .  A
C285        C286   1.409       .  A
C285        C290   1.402       .  A
C285        H292   1.083       .  S
C286        C287   1.416       .  A
C287        C288   1.405       .  A
C287        N294   1.428       .  S
C288        C289   1.409       .  A
C288        H293   1.083       .  S
C289        C290   1.415       .  A
C290        N291   1.429       .  S
N291        O295   1.263       .  A
N291        O296   1.261       .  A
N294        O298   1.262       .  A
N294        O297   1.262       .  A
C299        C300   1.403       .  A
C299        C304   1.404       .  A
C299        H306   1.083       .  S
C300        C301   1.415       .  A
C301        C302   1.401       .  A
C301        N308   1.432       .  S
C302        C303   1.407       .  A
C302        H307   1.083       .  S
C303        C304   1.421       .  A
C304        N305   1.433       .  S
N305        O309   1.262       .  A
N305        O310   1.263       .  A
N308        O312   1.262       .  A
N308        O311   1.261       .  A
C313        C314   1.398       .  A
C313        C318   1.398       .  A
C313        H320   1.084       .  S
C314        C315   1.404       .  A
C315        C316   1.399       .  A
C315        N322   1.429       .  S
C316        C317   1.410       .  A
C316        H321   1.083       .  S
C317        C318   1.419       .  A
C318        N319   1.429       .  S
N319        O323   1.262       .  A
N319        O324   1.262       .  A
N322        O326   1.262       .  A
N322        O325   1.262       .  A
C327        C328   1.407       .  A
C327        C332   1.406       .  A
C327        H334   1.083       .  S
C328        C329   1.423       .  A
C329        C330   1.397       .  A
C329        N336   1.433       .  S
C330        C331   1.395       .  A
C330        H335   1.084   1_565  S
C331        C332   1.411       .  A
C332        N333   1.432       .  S
N333        O337   1.262       .  A
N333        O338   1.263       .  A
N336        O340   1.262       .  A
N336        O339   1.262       .  A
C341        C342   1.409       .  A
C341        C346   1.407       .  A
C341        H348   1.081       .  S
C342        C343   1.420       .  A
C343        C344   1.402       .  A
C343        N350   1.434       .  S
C344        C345   1.403       .  A
C344        H349   1.074       .  S
C345        C346   1.419       .  A
C346        N347   1.433       .  S
N347        O351   1.262       .  A
N347        O352   1.263       .  A
N350        O354   1.263       .  A
N350        O353   1.262       .  A
C355        C356   1.404       .  A
C355        C360   1.404       .  A
C355        H362   1.084       .  S
C356        C357   1.409       .  A
C357        C358   1.399       .  A
C357        N364   1.429       .  S
C358        C359   1.403       .  A
C358       H1155   1.084       .  S
C359        C360   1.411       .  A
C360        N361   1.430       .  S
N361        O365   1.262       .  A
N361        O366   1.262       .  A
H363       C1150   1.084       .  S
N364       O1160   1.262       .  A
N364       O1159   1.262       .  A
O367       N1156   1.262       .  A
O368       N1156   1.262       .  A
C369        C370   1.401       .  A
C369        C374   1.408       .  A
C369        H376   1.084       .  S
C370        C371   1.406       .  A
C371        C372   1.393       .  A
C371        N378   1.431       .  S
C372        C373   1.411       .  A
C372        H377   1.082       .  S
C373        C374   1.421       .  A
C374        N375   1.430       .  S
N375        O379   1.262       .  A
N375        O380   1.262       .  A
N378        O382   1.262       .  A
N378        O381   1.262       .  A
C383        C384   1.405       .  A
C383        C388   1.398       .  A
C383        H390   1.084       .  S
C384        C385   1.410       .  A
C385        C386   1.403       .  A
C385        N392   1.429       .  S
C386        C387   1.406       .  A
C386        H391   1.084       .  S
C387        C388   1.411       .  A
C388        N389   1.433       .  S
N389        O393   1.263       .  A
N389        O394   1.262       .  A
N392        O396   1.262       .  A
N392        O395   1.262       .  A
C397        C398   1.404       .  A
C397        C402   1.407       .  A
C397        C752   1.478       .  S
C398        C399   1.401       .  A
C398        H403   1.083       .  S
C399        C400   1.402       .  A
C399        C780   1.487       .  S
C400        C401   1.407       .  A
C400        H404   1.083       .  S
C401        C402   1.409       .  A
C401        C769   1.501       .  S
C402        H405   1.081       .  S
C406        C407   1.403       .  A
C406        C411   1.396       .  A
C406        C710   1.485       .  S
C407        C408   1.416       .  A
C407        H412   1.081       .  S
C408        C409   1.421       .  A
C408        C738   1.513       .  S
C409        C410   1.413       .  A
C409        H413   1.080       .  S
C410        C411   1.398       .  A
C410        C724   1.499       .  S
C411        H414   1.084       .  S
C415        C416   1.394       .  A
C415        C420   1.397       .  A
C415        C668   1.478       .  S
C416        C417   1.408       .  A
C416        H421   1.082       .  S
C417        C418   1.415       .  A
C417        C682   1.509       .  S
C418        C419   1.418       .  A
C418        H422   1.079       .  S
C419        C420   1.408       .  A
C419        C699   1.502       .  S
C420        H423   1.081       .  S
C424        C425   1.423       .  A
C424        C429   1.406       .  A
C424        C766   1.481       .  S
C425        C426   1.409       .  A
C425        C741   1.512       .  S
C426        C427   1.409       .  A
C426        H431   1.083       .  S
C427        C428   1.416       .  A
C427        C657   1.479       .  S
C428        C429   1.405       .  A
C428        C685   1.504       .  S
C429        H430   1.085       .  S
C432        C433   1.408       .  A
C432        C437   1.408       .  A
C432        C629   1.489       .  S
C433        C434   1.408       .  A
C433        H438   1.080       .  S
C434        C435   1.408       .  A
C434        C654   1.508       .  S
C435        C436   1.403       .  A
C435        H439   1.077       .  S
C436        C437   1.406       .  A
C436        C640   1.499       .  S
C437        H440   1.083       .  S
C441        C442   1.401       .  A
C441        C446   1.406       .  A
C441        C587   1.482       .  S
C442        C443   1.401       .  A
C442        H447   1.084       .  S
C443        C444   1.406       .  A
C443        C612   1.494       .  S
C444        C445   1.414       .  A
C444        H448   1.077       .  S
C445        C446   1.415       .  A
C445        C598   1.512       .  S
C446        H449   1.081       .  S
C450        C451   1.407       .  A
C450        C455   1.411       .  A
C450        C545   1.482       .  S
C451        C452   1.403       .  A
C451        H456   1.084       .  S
C452        C453   1.398       .  A
C452        C559   1.486       .  S
C453        C454   1.404       .  A
C453        H457   1.084       .  S
C454        C455   1.410       .  A
C454        C570   1.495       .  S
C455        H458   1.083       .  S
C459       C1252   1.415       .  A
C459        C464   1.402       .  A
C459        C783   1.488       .  S
C460       C1251   1.415       .  A
C460        C461   1.404   1_655  A
C460        C615   1.498   1_655  S
C461        C462   1.411   1_455  A
C461        H466   1.083       .  S
C462       C1255   1.425       .  A
C462        C643   1.497   1_655  S
C463       C1254   1.424       .  A
C463        C464   1.407       .  A
C463        C573   1.498       .  S
C464        H465   1.084       .  S
C467        C468   1.406       .  A
C467        C472   1.406       .  A
C467        C556   1.486       .  S
C468        C469   1.397   1_545  A
C468        C727   1.482   1_545  S
C469        C470   1.408   1_565  A
C469        H474   1.085       .  S
C470        C471   1.427       .  A
C470        C601   1.502   1_545  S
C471        C472   1.413       .  A
C471        C696   1.496       .  S
C472        H473   1.084       .  S
Zr475       O476   2.438       .  S
Zr475      O1269   2.435   1_445  S
Zr475       O478   2.447       .  S
Zr475       O481   2.438   1_545  S
Zr475      O1275   2.383   1_455  S
Zr475      O1276   2.382   1_445  S
Zr475       O485   2.408       .  S
Zr475       O486   2.393       .  S
O476        H532   0.989       .  S
O476        H540   0.990       .  S
O477      Zr1267   2.432   1_565  S
O477        C497   1.283       .  A
O478        C499   1.286       .  A
O479      Zr1281   2.433   1_455  S
O479        C498   1.285       .  A
O480      Zr1280   2.435   1_455  S
O480        C499   1.286       .  A
O481        C498   1.286       .  A
O482       Zr490   2.421       .  S
O482        C497   1.282       .  A
O483      Zr1267   2.383       .  S
O483       Zr488   2.398       .  S
O483       Zr490   2.376   1_545  S
O484      Zr1267   2.384   1_565  S
O484       Zr489   2.390       .  S
O484       Zr490   2.379       .  S
O484        H519   0.953       .  S
O485      Zr1280   2.401   1_455  S
O485       Zr505   2.392       .  S
O485        H522   0.965       .  S
O486      Zr1281   2.386   1_445  S
O486       Zr505   2.384       .  S
Zr487       O512   2.442       .  S
Zr487      O1298   2.440       .  S
Zr487       O514   2.448   1_545  S
Zr487       O502   2.447       .  S
Zr487       O891   2.382   1_556  S
Zr487       O892   2.387   1_556  S
Zr488      O1299   2.436       .  S
Zr488       O500   2.435       .  S
Zr488      O1272   2.434       .  S
Zr488      O1277   2.402       .  S
Zr488       O494   2.394       .  S
Zr488      O1287   2.396       .  S
Zr489      O1283   2.436       .  S
Zr489       O513   2.436       .  S
Zr489      O1271   2.435       .  S
Zr489      O1278   2.389   1_565  S
Zr489       O493   2.392       .  S
Zr489      O1288   2.398   1_565  S
Zr490       O516   2.435       .  S
Zr490       O517   2.436       .  S
Zr490       O492   2.436       .  S
Zr490       O493   2.393       .  S
Zr490       O494   2.393   1_565  S
O491      Zr1281   2.435   1_455  S
O491        H528   0.990       .  S
O492        H523   0.990       .  S
O492        H537   0.990   1_565  S
O494        H520   0.966       .  S
O495       Zr883   2.381   1_455  S
O495      Zr1280   2.396   1_455  S
O495       Zr505   2.381       .  S
O496       Zr883   2.385   1_455  S
O496      Zr1281   2.395   1_445  S
O496       Zr505   2.383       .  S
C497        C713   1.477       .  S
C498        C584   1.483       .  S
C499        C626   1.501       .  S
O500        H536   0.990       .  S
O501        C503   1.287       .  A
O502        C503   1.287       .  A
C503        C542   1.491       .  S
O504       Zr505   2.434       .  S
O504        H533   0.990       .  S
Zr505       O508   2.435       .  S
Zr505       O509   2.438       .  S
O506      Zr1279   2.441   1_455  S
O506        C511   1.286       .  A
O507      Zr1280   2.435   1_455  S
O507        H524   0.990       .  S
O507        H539   0.990       .  S
O508        H525   0.990       .  S
O509        H529   0.990       .  S
O510        C511   1.279       .  A
C511        C671   1.481       .  S
O512        H531   0.990       .  S
O512        H535   0.990   1_545  S
O513        H527   0.990       .  S
O513        H534   0.990       .  S
O514        C518   1.285       .  A
O515        C518   1.283       .  A
O516        H526   0.990       .  S
O517        H530   0.990       .  S
C518        C755   1.479       .  S
C541        C542   1.408       .  A
C541        C546   1.404       .  A
C541        H548   1.084       .  S
C542        C543   1.415       .  A
C543        C544   1.405       .  A
C543        N550   1.429       .  S
C544        C545   1.402       .  A
C544        H549   1.084       .  S
C545        C546   1.408       .  A
C546        N547   1.430       .  S
N547        O551   1.262       .  A
N547        O552   1.262       .  A
N550        O554   1.262       .  A
N550        O553   1.262       .  A
C555        C556   1.403       .  A
C555        C560   1.403       .  A
C555        H562   1.084       .  S
C556        C557   1.414       .  A
C557        C558   1.403       .  A
C557        N564   1.435       .  S
C558        C559   1.405       .  A
C558        H563   1.084       .  S
C559        C560   1.411       .  A
C560        N561   1.429       .  S
N561        O565   1.262       .  A
N561        O566   1.262       .  A
N564        O568   1.262       .  A
N564        O567   1.262       .  A
C569        C570   1.405       .  A
C569        C574   1.395       .  A
C569        H576   1.084       .  S
C570        C571   1.416       .  A
C571        C572   1.410       .  A
C571        N578   1.433       .  S
C572        C573   1.409       .  A
C572       H1369   1.083       .  S
C573        C574   1.415       .  A
C574        N575   1.433       .  S
N575        O579   1.262       .  A
N575        O580   1.262       .  A
H577       C1364   1.083   1_455  S
N578       O1374   1.262       .  A
N578        O581   1.262       .  A
O582       N1370   1.262       .  A
C583        C584   1.407       .  A
C583        C588   1.404       .  A
C583        H590   1.084       .  S
C584        C585   1.412       .  A
C585        C586   1.400       .  A
C585       N1384   1.431       .  S
C586        C587   1.403       .  A
C586        H591   1.084       .  S
C587        C588   1.409       .  A
C588        N589   1.429       .  S
N589        O593   1.262       .  A
N589        O594   1.262       .  A
N592       C1377   1.429       .  S
N592        O596   1.262       .  A
N592        O595   1.262       .  A
C597        C598   1.415       .  A
C597        C602   1.410   1_565  A
C597        H604   1.081       .  S
C598        C599   1.421       .  A
C599        C600   1.397       .  A
C599        N606   1.434       .  S
C600        C601   1.404       .  A
C600        H605   1.084       .  S
C601        C602   1.415   1_565  A
C602        N603   1.435       .  S
N603        O607   1.263       .  A
N603        O608   1.262       .  A
N606        O610   1.263       .  A
N606        O609   1.262       .  A
C611        C612   1.406       .  A
C611        C616   1.402       .  A
C611        H618   1.084       .  S
C612        C613   1.413       .  A
C613        C614   1.402       .  A
C613        N620   1.431       .  S
C614        C615   1.406       .  A
C614        H619   1.083       .  S
C615        C616   1.416       .  A
C616        N617   1.432   1_455  S
N617        O621   1.261       .  A
N617        O622   1.262   1_655  A
N620        O624   1.262       .  A
N620        O623   1.262       .  A
C625        C626   1.411       .  A
C625        C630   1.403       .  A
C625        H632   1.083       .  S
C626        C627   1.421       .  A
C627        C628   1.403       .  A
C627       N1426   1.431       .  S
C628        C629   1.401       .  A
C628        H633   1.084       .  S
C629        C630   1.410       .  A
C630        N631   1.431       .  S
N631        O635   1.262       .  A
N631        O636   1.262       .  A
N634       C1419   1.433       .  S
N634        O638   1.263       .  A
N634        O637   1.263       .  A
C639        C640   1.409       .  A
C639        C644   1.408   1_455  A
C639        H646   1.083   1_455  S
C640        C641   1.418       .  A
C641        C642   1.398       .  A
C641        N648   1.436       .  S
C642        C643   1.404       .  A
C642        H647   1.084       .  S
C643        C644   1.416   1_455  A
C644       N1437   1.435       .  S
N645       C1436   1.435       .  S
N645        O649   1.262       .  A
N645        O650   1.263       .  A
N648        O652   1.263       .  A
N648        O651   1.262       .  A
C653        C654   1.411       .  A
C653        C658   1.398       .  A
C653        H660   1.081       .  S
C654        C655   1.423       .  A
C655        C656   1.405       .  A
C655        N662   1.430       .  S
C656        C657   1.400       .  A
C656        H661   1.084       .  S
C657        C658   1.413       .  A
C658        N659   1.442       .  S
N659        O663   1.263       .  A
N659        O664   1.262       .  A
N662        O666   1.262       .  A
N662        O665   1.262       .  A
C667        C668   1.401       .  A
C667        C672   1.398       .  A
C667        H674   1.084       .  S
C668        C669   1.410       .  A
C669        C670   1.401       .  A
C669        N676   1.431       .  S
C670        C671   1.405       .  A
C670        H675   1.084       .  S
C671        C672   1.415       .  A
C672        N673   1.429       .  S
N673        O677   1.262       .  A
N673        O678   1.262       .  A
N676        O680   1.262       .  A
N676        O679   1.262       .  A
C681        C682   1.410       .  A
C681        C686   1.402       .  A
C681        H688   1.082       .  S
C682        C683   1.417       .  A
C683        C684   1.404       .  A
C683        N690   1.428       .  S
C684        C685   1.408       .  A
C684        H689   1.083       .  S
C685        C686   1.414       .  A
C686        N687   1.429       .  S
N687        O691   1.263       .  A
N687        O692   1.261       .  A
N690        O694   1.262       .  A
N690        O693   1.262       .  A
C695        C696   1.403       .  A
C695        C700   1.404       .  A
C695        H702   1.083       .  S
C696        C697   1.415       .  A
C697        C698   1.402       .  A
C697        N704   1.432       .  S
C698        C699   1.408       .  A
C698        H703   1.083       .  S
C699        C700   1.421       .  A
C700        N701   1.432       .  S
N701        O705   1.262       .  A
N701        O706   1.263       .  A
N704        O708   1.262       .  A
N704        O707   1.262       .  A
C709        C710   1.404       .  A
C709        C714   1.394       .  A
C709        H716   1.081       .  S
C710        C711   1.411       .  A
C711        C712   1.405       .  A
C711        N718   1.430       .  S
C712        C713   1.406       .  A
C712        H717   1.083       .  S
C713        C714   1.408       .  A
C714        N715   1.429       .  S
N715        O719   1.262       .  A
N715        O720   1.262   1_565  A
N718        O722   1.262       .  A
N718        O721   1.262       .  A
C723        C724   1.407       .  A
C723        C728   1.408       .  A
C723        H730   1.083       .  S
C724        C725   1.423       .  A
C725        C726   1.397       .  A
C725        N732   1.432       .  S
C726        C727   1.394       .  A
C726        H731   1.084   1_565  S
C727        C728   1.412       .  A
C728        N729   1.434       .  S
N729        O733   1.262       .  A
N729        O734   1.263       .  A
N732        O736   1.263       .  A
N732        O735   1.262       .  A
C737        C738   1.410       .  A
C737        C742   1.408       .  A
C737        H744   1.081       .  S
C738        C739   1.421       .  A
C739        C740   1.404       .  A
C739        N746   1.435       .  S
C740        C741   1.404       .  A
C740        H745   1.074       .  S
C741        C742   1.419       .  A
C742        N743   1.434       .  S
N743        O747   1.262       .  A
N743        O748   1.263       .  A
N746        O750   1.263       .  A
N746        O749   1.262       .  A
C751        C752   1.404       .  A
C751        C756   1.405       .  A
C751        H758   1.084       .  S
C752        C753   1.407       .  A
C753        C754   1.398       .  A
C753        N760   1.429       .  S
C754        C755   1.405       .  A
C754       H1551   1.084       .  S
C755        C756   1.413       .  A
C756        N757   1.431       .  S
N757        O761   1.262       .  A
N757        O762   1.262       .  A
H759       C1546   1.084       .  S
N760       O1556   1.262       .  A
N760       O1555   1.262       .  A
O763       N1552   1.262       .  A
O764       N1552   1.262       .  A
C765        C766   1.401       .  A
C765        C770   1.408       .  A
C765        H772   1.084       .  S
C766        C767   1.406       .  A
C767        C768   1.393       .  A
C767        N774   1.431       .  S
C768        C769   1.410       .  A
C768        H773   1.082       .  S
C769        C770   1.420       .  A
C770        N771   1.431       .  S
N771        O775   1.262       .  A
N771        O776   1.262       .  A
N774        O778   1.262       .  A
N774        O777   1.262       .  A
C779        C780   1.405       .  A
C779        C784   1.398       .  A
C779        H786   1.084       .  S
C780        C781   1.410       .  A
C781        C782   1.404       .  A
C781        N788   1.429       .  S
C782        C783   1.406       .  A
C782        H787   1.084       .  S
C783        C784   1.412       .  A
C784        N785   1.434       .  S
N785        O789   1.263       .  A
N785        O790   1.262       .  A
N788        O792   1.262       .  A
N788        O791   1.262       .  A
C793        C794   1.405       .  A
C793        C798   1.408       .  A
C793       C1148   1.480       .  S
C794        C795   1.400       .  A
C794        H799   1.083       .  S
C795        C796   1.401       .  A
C795       C1176   1.486       .  S
C796        C797   1.407       .  A
C796        H800   1.083       .  S
C797        C798   1.409       .  A
C797       C1165   1.502       .  S
C798        H801   1.081       .  S
C802        C803   1.398       .  A
C802        C807   1.391       .  A
C802       C1106   1.471       .  S
C803        C804   1.412       .  A
C803        H808   1.081       .  S
C804        C805   1.420       .  A
C804       C1134   1.510       .  S
C805        C806   1.414       .  A
C805        H809   1.080       .  S
C806        C807   1.400       .  A
C806       C1120   1.497       .  S
C807        H810   1.083       .  S
C811        C812   1.393       .  A
C811        C816   1.397       .  A
C811       C1064   1.479       .  S
C812        C813   1.408       .  A
C812        H817   1.082       .  S
C813        C814   1.414       .  A
C813       C1078   1.508       .  S
C814        C815   1.418       .  A
C814        H818   1.080       .  S
C815        C816   1.409       .  A
C815       C1095   1.503       .  S
C816        H819   1.081       .  S
C820        C821   1.421       .  A
C820        C825   1.405       .  A
C820       C1162   1.479       .  S
C821        C822   1.408       .  A
C821       C1137   1.510       .  S
C822        C823   1.408       .  A
C822        H827   1.083       .  S
C823        C824   1.416       .  A
C823       C1053   1.478       .  S
C824        C825   1.404       .  A
C824       C1081   1.503       .  S
C825        H826   1.085       .  S
C828        C829   1.409       .  A
C828        C833   1.409       .  A
C828       C1025   1.491       .  S
C829        C830   1.407       .  A
C829        H834   1.080       .  S
C830        C831   1.408       .  A
C830       C1050   1.508       .  S
C831        C832   1.403       .  A
C831        H835   1.076       .  S
C832        C833   1.407       .  A
C832       C1036   1.501       .  S
C833        H836   1.083       .  S
C837        C838   1.401       .  A
C837        C842   1.406       .  A
C837        C983   1.482       .  S
C838        C839   1.402       .  A
C838        H843   1.084       .  S
C839        C840   1.405       .  A
C839       C1008   1.493       .  S
C840        C841   1.413       .  A
C840        H844   1.077       .  S
C841        C842   1.414       .  A
C841        C994   1.510       .  S
C842        H845   1.082       .  S
C846        C847   1.407       .  A
C846        C851   1.412       .  A
C846        C941   1.484       .  S
C847        C848   1.403       .  A
C847        H852   1.084       .  S
C848        C849   1.399       .  A
C848        C955   1.486       .  S
C849        C850   1.405       .  A
C849        H853   1.084       .  S
C850        C851   1.411       .  A
C850        C966   1.496       .  S
C851        H854   1.083       .  S
C855        C860   1.403       .  A
C855       C1179   1.487       .  S
C856        C857   1.404       .  A
C856       C1011   1.498       .  S
C857        C858   1.410       .  A
C857        H862   1.083       .  S
C858       C1039   1.497       .  S
C859        C860   1.408       .  A
C859        C969   1.499       .  S
C860        H861   1.084       .  S
C863        C864   1.406       .  A
C863        C868   1.405       .  A
C863        C952   1.486       .  S
C864        C865   1.397   1_545  A
C864       C1123   1.481   1_545  S
C865        C866   1.408   1_565  A
C865        H870   1.085       .  S
C866        C867   1.428       .  A
C866        C997   1.503   1_545  S
C867        C868   1.413       .  A
C867       C1092   1.495       .  S
C868        H869   1.084       .  S
Zr871       O872   2.437       .  S
Zr871       O874   2.448       .  S
Zr871       O877   2.439   1_545  S
Zr871       O881   2.406       .  S
Zr871       O882   2.392       .  S
O872        H928   0.989       .  S
O872        H936   0.990       .  S
O873        C893   1.284       .  A
O874        C895   1.286       .  A
O875        C894   1.286       .  A
O876        C895   1.286       .  A
O877        C894   1.286       .  A
O878       Zr886   2.419       .  S
O878        C893   1.280       .  A
O879       Zr884   2.399       .  S
O879       Zr886   2.380   1_545  S
O880       Zr885   2.391       .  S
O880       Zr886   2.379       .  S
O880        H915   0.968       .  S
O881       Zr901   2.393       .  S
O881        H918   0.965       .  S
O882       Zr901   2.383       .  S
Zr883       O908   2.442       .  S
Zr883       O910   2.445   1_545  S
Zr883       O898   2.443       .  S
Zr883      O1285   2.402   1_545  S
Zr883      O1286   2.409       .  S
Zr884       O896   2.435       .  S
Zr884      O1293   2.438   1_554  S
Zr884       O890   2.395       .  S
Zr885       O909   2.440       .  S
Zr885      O1307   2.425   1_554  S
Zr885       O889   2.393       .  S
Zr886       O912   2.437       .  S
Zr886       O913   2.435       .  S
Zr886       O888   2.437       .  S
Zr886       O889   2.388       .  S
Zr886       O890   2.395   1_565  S
O887        H924   0.990   1_554  S
O888        H919   0.990       .  S
O888        H933   0.990   1_565  S
O889      Zr1279   2.402   1_564  S
O890      Zr1279   2.408   1_554  S
O890        H916   0.965       .  S
O891       Zr901   2.380       .  S
O892       Zr901   2.383       .  S
O892       H1313   0.961   1_554  S
C893       C1109   1.490       .  S
C894        C980   1.488       .  S
C895       C1022   1.501       .  S
O896        H932   0.990       .  S
O897      Zr1280   2.444       .  S
O897        C899   1.288       .  A
O898        C899   1.286       .  A
C899        C938   1.499       .  S
O900       Zr901   2.434       .  S
O900        H929   0.990       .  S
Zr901       O904   2.435       .  S
Zr901       O905   2.438       .  S
Zr901      O1302   2.407   1_554  S
O902        C907   1.286       .  A
O903        H920   0.990       .  S
O903        H935   0.990       .  S
O904        H921   0.990       .  S
O905        H925   0.990       .  S
O905       H1330   0.990       .  S
O906      Zr1297   2.406       .  S
O906        C907   1.278       .  A
C907       C1067   1.481       .  S
O908        H927   0.990       .  S
O908        H931   0.990   1_545  S
O909        H923   0.990       .  S
O909        H930   0.990       .  S
O910        C914   1.284       .  A
O911      Zr1281   2.422       .  S
O911        C914   1.283       .  A
O912        H922   0.990       .  S
O913        H926   0.990   1_554  S
C914       C1151   1.475       .  S
H917       O1288   0.973       .  S
H934       O1301   0.990       .  S
C937        C938   1.410       .  A
C937        C942   1.405       .  A
C937        H944   1.083       .  S
C938        C939   1.420       .  A
C939        C940   1.405       .  A
C939        N946   1.432       .  S
C940        C941   1.401       .  A
C940        H945   1.084       .  S
C941        C942   1.407       .  A
C942        N943   1.430       .  S
N943        O947   1.262       .  A
N943        O948   1.262       .  A
N946        O950   1.262   1_655  A
N946        O949   1.262       .  A
C951        C952   1.403       .  A
C951        C956   1.403       .  A
C951        H958   1.084       .  S
C952        C953   1.414       .  A
C953        C954   1.403       .  A
C953        N960   1.435       .  S
C954        C955   1.404       .  A
C954        H959   1.084       .  S
C955        C956   1.410       .  A
C956        N957   1.429       .  S
N957        O961   1.262       .  A
N957        O962   1.262       .  A
N960        O964   1.263       .  A
N960        O963   1.262       .  A
C965        C966   1.406       .  A
C965        C970   1.397       .  A
C965        H972   1.084       .  S
C966        C967   1.416       .  A
C967        C968   1.410       .  A
C967        N974   1.433   1_655  S
C968        C969   1.409       .  A
C969        C970   1.415       .  A
C970        N971   1.434       .  S
N971        O975   1.262       .  A
N971        O976   1.262       .  A
N974        O977   1.262   1_455  A
C979        C980   1.409       .  A
C979        C984   1.405       .  A
C979        H986   1.084       .  S
C980        C981   1.416       .  A
C981        C982   1.401       .  A
C982        C983   1.401       .  A
C982        H987   1.084       .  S
C983        C984   1.408       .  A
C984        N985   1.429       .  S
N985        O989   1.262       .  A
N985        O990   1.262       .  A
N988        O992   1.262       .  A
N988        O991   1.262   1_455  A
C993        C994   1.413       .  A
C993        C998   1.410   1_565  A
C993       H1000   1.081       .  S
C994        C995   1.420       .  A
C995        C996   1.397       .  A
C995       N1002   1.434       .  S
C996        C997   1.404       .  A
C996       H1001   1.084       .  S
C997        C998   1.416   1_565  A
C998        N999   1.434       .  S
N999       O1003   1.263       .  A
N999       O1004   1.262       .  A
N1002      O1006   1.263       .  A
N1002      O1005   1.262       .  A
C1007      C1008   1.406       .  A
C1007      C1012   1.402       .  A
C1007      H1014   1.084       .  S
C1008      C1009   1.414       .  A
C1009      C1010   1.403       .  A
C1009      N1016   1.432       .  S
C1010      C1011   1.406       .  A
C1010      H1015   1.083       .  S
C1011      C1012   1.416       .  A
C1012      N1013   1.432       .  S
N1013      O1017   1.261       .  A
N1013      O1018   1.262       .  A
N1016      O1020   1.262       .  A
N1016      O1019   1.262       .  A
C1021      C1022   1.411       .  A
C1021      C1026   1.404       .  A
C1021      H1028   1.083       .  S
C1022      C1023   1.420       .  A
C1023      C1024   1.403       .  A
C1024      C1025   1.402       .  A
C1024      H1029   1.084       .  S
C1025      C1026   1.411       .  A
C1026      N1027   1.431       .  S
N1027      O1031   1.262       .  A
N1027      O1032   1.262       .  A
N1030      O1034   1.262   1_455  A
N1030      O1033   1.263       .  A
C1035      C1036   1.409       .  A
C1035      C1040   1.408       .  A
C1035      H1042   1.082       .  S
C1036      C1037   1.419       .  A
C1037      C1038   1.397       .  A
C1037      N1044   1.435       .  S
C1038      C1039   1.403       .  A
C1038      H1043   1.084       .  S
C1039      C1040   1.416       .  A
N1041      O1045   1.262       .  A
N1041      O1046   1.263       .  A
N1044      O1048   1.263       .  A
N1044      O1047   1.262       .  A
C1049      C1050   1.411       .  A
C1049      C1054   1.397       .  A
C1049      H1056   1.081       .  S
C1050      C1051   1.423       .  A
C1051      C1052   1.405       .  A
C1051      N1058   1.431       .  S
C1052      C1053   1.400       .  A
C1052      H1057   1.084       .  S
C1053      C1054   1.413       .  A
C1054      N1055   1.442       .  S
N1055      O1059   1.263       .  A
N1055      O1060   1.262       .  A
N1058      O1062   1.262       .  A
N1058      O1061   1.262       .  A
C1063      C1064   1.401       .  A
C1063      C1068   1.398       .  A
C1063      H1070   1.084       .  S
C1064      C1065   1.411       .  A
C1065      C1066   1.402       .  A
C1065      N1072   1.431       .  S
C1066      C1067   1.404       .  A
C1066      H1071   1.084       .  S
C1067      C1068   1.415       .  A
C1068      N1069   1.430       .  S
N1069      O1073   1.262       .  A
N1069      O1074   1.262       .  A
N1072      O1076   1.262       .  A
N1072      O1075   1.262       .  A
C1077      C1078   1.409       .  A
C1077      C1082   1.401       .  A
C1077      H1084   1.083       .  S
C1078      C1079   1.417       .  A
C1079      C1080   1.404       .  A
C1079      N1086   1.428       .  S
C1080      C1081   1.409       .  A
C1080      H1085   1.083       .  S
C1081      C1082   1.414       .  A
C1082      N1083   1.429       .  S
N1083      O1087   1.263       .  A
N1083      O1088   1.261       .  A
N1086      O1090   1.262       .  A
N1086      O1089   1.262       .  A
C1091      C1092   1.402       .  A
C1091      C1096   1.404       .  A
C1091      H1098   1.083       .  S
C1092      C1093   1.415       .  A
C1093      C1094   1.401       .  A
C1093      N1100   1.432       .  S
C1094      C1095   1.408       .  A
C1094      H1099   1.083       .  S
C1095      C1096   1.421       .  A
C1096      N1097   1.432       .  S
N1097      O1101   1.262       .  A
N1097      O1102   1.263       .  A
N1100      O1104   1.262       .  A
N1100      O1103   1.261       .  A
C1105      C1106   1.398       .  A
C1105      C1110   1.398       .  A
C1105      H1112   1.084       .  S
C1106      C1107   1.404       .  A
C1107      C1108   1.402       .  A
C1107      N1114   1.430       .  S
C1108      C1109   1.411       .  A
C1108      H1113   1.084       .  S
C1109      C1110   1.419       .  A
C1110      N1111   1.430       .  S
N1111      O1115   1.262       .  A
N1111      O1116   1.262       .  A
N1114      O1118   1.262       .  A
N1114      O1117   1.262       .  A
C1119      C1120   1.407       .  A
C1119      C1124   1.405       .  A
C1119      H1126   1.083       .  S
C1120      C1121   1.423       .  A
C1121      C1122   1.398       .  A
C1121      N1128   1.433       .  S
C1122      C1123   1.395       .  A
C1122      H1127   1.084   1_565  S
C1123      C1124   1.410       .  A
C1124      N1125   1.432       .  S
N1125      O1129   1.262       .  A
N1125      O1130   1.263       .  A
N1128      O1132   1.262       .  A
N1128      O1131   1.262       .  A
C1133      C1134   1.410       .  A
C1133      C1138   1.408       .  A
C1133      H1140   1.081       .  S
C1134      C1135   1.420       .  A
C1135      C1136   1.402       .  A
C1135      N1142   1.435       .  S
C1136      C1137   1.404       .  A
C1136      H1141   1.074       .  S
C1137      C1138   1.418       .  A
C1138      N1139   1.433       .  S
N1139      O1143   1.262       .  A
N1139      O1144   1.263       .  A
N1142      O1146   1.263       .  A
N1142      O1145   1.262       .  A
C1147      C1148   1.405       .  A
C1147      C1152   1.404       .  A
C1147      H1154   1.084       .  S
C1148      C1149   1.409       .  A
C1149      C1150   1.398       .  A
C1149      N1156   1.429       .  S
C1150      C1151   1.402       .  A
C1151      C1152   1.411       .  A
C1152      N1153   1.430       .  S
N1153      O1157   1.262   1_655  A
N1153      O1158   1.262       .  A
C1161      C1162   1.401       .  A
C1161      C1166   1.408       .  A
C1161      H1168   1.084       .  S
C1162      C1163   1.405       .  A
C1163      C1164   1.392       .  A
C1163      N1170   1.431       .  S
C1164      C1165   1.411       .  A
C1164      H1169   1.082       .  S
C1165      C1166   1.421       .  A
C1166      N1167   1.430       .  S
N1167      O1171   1.262       .  A
N1167      O1172   1.262       .  A
N1170      O1174   1.262       .  A
N1170      O1173   1.262       .  A
C1175      C1176   1.405       .  A
C1175      C1180   1.398       .  A
C1175      H1182   1.084       .  S
C1176      C1177   1.410       .  A
C1177      C1178   1.403       .  A
C1177      N1184   1.429       .  S
C1178      C1179   1.406       .  A
C1178      H1183   1.084       .  S
C1179      C1180   1.412       .  A
C1180      N1181   1.434       .  S
N1181      O1185   1.263       .  A
N1181      O1186   1.262       .  A
N1184      O1188   1.262       .  A
N1184      O1187   1.262       .  A
C1189      C1190   1.403       .  A
C1189      C1194   1.408       .  A
C1189      C1544   1.478       .  S
C1190      C1191   1.400       .  A
C1190      H1195   1.083       .  S
C1191      C1192   1.402       .  A
C1191      C1572   1.487       .  S
C1192      C1193   1.409       .  A
C1192      H1196   1.083       .  S
C1193      C1194   1.410       .  A
C1193      C1561   1.505       .  S
C1194      H1197   1.081       .  S
C1198      C1199   1.401       .  A
C1198      C1203   1.393       .  A
C1198      C1502   1.477       .  S
C1199      C1200   1.414       .  A
C1199      H1204   1.082       .  S
C1200      C1201   1.419       .  A
C1200      C1530   1.510       .  S
C1201      C1202   1.412       .  A
C1201      H1205   1.081       .  S
C1202      C1203   1.398       .  A
C1202      C1516   1.496       .  S
C1203      H1206   1.084       .  S
C1207      C1208   1.393       .  A
C1207      C1212   1.396       .  A
C1207      C1460   1.476       .  S
C1208      C1209   1.407       .  A
C1208      H1213   1.082       .  S
C1209      C1210   1.415       .  A
C1209      C1474   1.507       .  S
C1210      C1211   1.419       .  A
C1210      H1214   1.080       .  S
C1211      C1212   1.408       .  A
C1211      C1491   1.502       .  S
C1212      H1215   1.081       .  S
C1216      C1217   1.423       .  A
C1216      C1221   1.406       .  A
C1216      C1558   1.482       .  S
C1217      C1218   1.409       .  A
C1217      C1533   1.512       .  S
C1218      C1219   1.409       .  A
C1218      H1223   1.083       .  S
C1219      C1220   1.416       .  A
C1219      C1449   1.479       .  S
C1220      C1221   1.405       .  A
C1220      C1477   1.505       .  S
C1221      H1222   1.085       .  S
C1224      C1225   1.408       .  A
C1224      C1229   1.408       .  A
C1224      C1421   1.488       .  S
C1225      C1226   1.408       .  A
C1225      H1230   1.080       .  S
C1226      C1227   1.408       .  A
C1226      C1446   1.508       .  S
C1227      C1228   1.404       .  A
C1227      H1231   1.077       .  S
C1228      C1229   1.406       .  A
C1228      C1432   1.499       .  S
C1229      H1232   1.083       .  S
C1233      C1234   1.402       .  A
C1233      C1238   1.407       .  A
C1233      C1379   1.484       .  S
C1234      C1235   1.401       .  A
C1234      H1239   1.084       .  S
C1235      C1236   1.405       .  A
C1235      C1404   1.493       .  S
C1236      C1237   1.413       .  A
C1236      H1240   1.077       .  S
C1237      C1238   1.414       .  A
C1237      C1390   1.510       .  S
C1238      H1241   1.081       .  S
C1242      C1243   1.406       .  A
C1242      C1247   1.412       .  A
C1242      C1337   1.484       .  S
C1243      C1244   1.403       .  A
C1243      H1248   1.084       .  S
C1244      C1245   1.398       .  A
C1244      C1351   1.485       .  S
C1245      C1246   1.404       .  A
C1245      H1249   1.084       .  S
C1246      C1247   1.412       .  A
C1246      C1362   1.497       .  S
C1247      H1250   1.083       .  S
C1251      C1256   1.403       .  A
C1251      C1575   1.488       .  S
C1252      C1253   1.404       .  A
C1252      C1407   1.496       .  S
C1253      C1254   1.410       .  A
C1253      H1258   1.083       .  S
C1254      C1435   1.497       .  S
C1255      C1256   1.408       .  A
C1255      C1365   1.500       .  S
C1256      H1257   1.084       .  S
C1259      C1260   1.406       .  A
C1259      C1264   1.405       .  A
C1259      C1348   1.486       .  S
C1260      C1261   1.396   1_545  A
C1260      C1519   1.480   1_545  S
C1261      C1262   1.407   1_565  A
C1261      H1266   1.085       .  S
C1262      C1263   1.427       .  A
C1262      C1393   1.502   1_545  S
C1263      C1264   1.412       .  A
C1263      C1488   1.494       .  S
C1264      H1265   1.084       .  S
Zr1267     O1268   2.439       .  S
Zr1267     O1270   2.447       .  S
Zr1267     O1273   2.436   1_545  S
Zr1267     O1277   2.407       .  S
Zr1267     O1278   2.395       .  S
O1268      H1324   0.989       .  S
O1268      H1332   0.990       .  S
O1269      C1289   1.284       .  A
O1270      C1291   1.286       .  A
O1271      C1290   1.286       .  A
O1272      C1291   1.286       .  A
O1273      C1290   1.285       .  A
O1274     Zr1282   2.419       .  S
O1274      C1289   1.281       .  A
O1275     Zr1280   2.400       .  S
O1275     Zr1282   2.378   1_545  S
O1276     Zr1281   2.392       .  S
O1276     Zr1282   2.379       .  S
O1276      H1311   0.967       .  S
O1277     Zr1297   2.391       .  S
O1277      H1314   0.965       .  S
O1278     Zr1297   2.384       .  S
Zr1279     O1304   2.441       .  S
Zr1279     O1306   2.446   1_545  S
Zr1279     O1294   2.450       .  S
Zr1280     O1292   2.435       .  S
Zr1280     O1286   2.395       .  S
Zr1281     O1305   2.440       .  S
Zr1281     O1285   2.392       .  S
Zr1282     O1308   2.435       .  S
Zr1282     O1309   2.436       .  S
Zr1282     O1284   2.437       .  S
Zr1282     O1285   2.391       .  S
Zr1282     O1286   2.392   1_565  S
O1283      H1320   0.989       .  S
O1284      H1315   0.990       .  S
O1284      H1329   0.990   1_565  S
O1286      H1312   0.965       .  S
O1287     Zr1297   2.379       .  S
O1288     Zr1297   2.385       .  S
C1289      C1505   1.483       .  S
C1290      C1376   1.483       .  S
C1291      C1418   1.500       .  S
O1292      H1328   0.990       .  S
O1293      C1295   1.286       .  A
O1294      C1295   1.288       .  A
C1295      C1334   1.496       .  S
O1296     Zr1297   2.435       .  S
O1296      H1325   0.990       .  S
Zr1297     O1300   2.435       .  S
Zr1297     O1301   2.437       .  S
O1298      C1303   1.285       .  A
O1299      H1316   0.990       .  S
O1299      H1331   0.990       .  S
O1300      H1317   0.990       .  S
O1301      H1321   0.990       .  S
O1302      C1303   1.278       .  A
C1303      C1463   1.480       .  S
O1304      H1323   0.990       .  S
O1304      H1327   0.990   1_545  S
O1305      H1319   0.990       .  S
O1305      H1326   0.990       .  S
O1306      C1310   1.285       .  A
O1307      C1310   1.284       .  A
O1308      H1318   0.990       .  S
O1309      H1322   0.990       .  S
C1310      C1547   1.479       .  S
C1333      C1334   1.409       .  A
C1333      C1338   1.405       .  A
C1333      H1340   1.084       .  S
C1334      C1335   1.417       .  A
C1335      C1336   1.406       .  A
C1335      N1342   1.431       .  S
C1336      C1337   1.402       .  A
C1336      H1341   1.084       .  S
C1337      C1338   1.408       .  A
C1338      N1339   1.430       .  S
N1339      O1343   1.262       .  A
N1339      O1344   1.262       .  A
N1342      O1346   1.262   1_655  A
N1342      O1345   1.262       .  A
C1347      C1348   1.403       .  A
C1347      C1352   1.403       .  A
C1347      H1354   1.084       .  S
C1348      C1349   1.414       .  A
C1349      C1350   1.403       .  A
C1349      N1356   1.436       .  S
C1350      C1351   1.404       .  A
C1350      H1355   1.084       .  S
C1351      C1352   1.410       .  A
C1352      N1353   1.429       .  S
N1353      O1357   1.262       .  A
N1353      O1358   1.262       .  A
N1356      O1360   1.263       .  A
N1356      O1359   1.262       .  A
C1361      C1362   1.406       .  A
C1361      C1366   1.396       .  A
C1361      H1368   1.084       .  S
C1362      C1363   1.416       .  A
C1363      C1364   1.411       .  A
C1363      N1370   1.433   1_655  S
C1364      C1365   1.409       .  A
C1365      C1366   1.415       .  A
C1366      N1367   1.433       .  S
N1367      O1371   1.262       .  A
N1367      O1372   1.262       .  A
N1370      O1373   1.262   1_455  A
C1375      C1376   1.406       .  A
C1375      C1380   1.405       .  A
C1375      H1382   1.084       .  S
C1376      C1377   1.411       .  A
C1377      C1378   1.400       .  A
C1378      C1379   1.403       .  A
C1378      H1383   1.084       .  S
C1379      C1380   1.411       .  A
C1380      N1381   1.430       .  S
N1381      O1385   1.262       .  A
N1381      O1386   1.262       .  A
N1384      O1388   1.262       .  A
N1384      O1387   1.262   1_455  A
C1389      C1390   1.414       .  A
C1389      C1394   1.410   1_565  A
C1389      H1396   1.081       .  S
C1390      C1391   1.420       .  A
C1391      C1392   1.397       .  A
C1391      N1398   1.434       .  S
C1392      C1393   1.404       .  A
C1392      H1397   1.084       .  S
C1393      C1394   1.415   1_565  A
C1394      N1395   1.435       .  S
N1395      O1399   1.263       .  A
N1395      O1400   1.262       .  A
N1398      O1402   1.263       .  A
N1398      O1401   1.262       .  A
C1403      C1404   1.406       .  A
C1403      C1408   1.402       .  A
C1403      H1410   1.084       .  S
C1404      C1405   1.414       .  A
C1405      C1406   1.402       .  A
C1405      N1412   1.432       .  S
C1406      C1407   1.406       .  A
C1406      H1411   1.083       .  S
C1407      C1408   1.415       .  A
C1408      N1409   1.432       .  S
N1409      O1413   1.261       .  A
N1409      O1414   1.262       .  A
N1412      O1416   1.262       .  A
N1412      O1415   1.262       .  A
C1417      C1418   1.410       .  A
C1417      C1422   1.403       .  A
C1417      H1424   1.083       .  S
C1418      C1419   1.421       .  A
C1419      C1420   1.405       .  A
C1420      C1421   1.402       .  A
C1420      H1425   1.084       .  S
C1421      C1422   1.411       .  A
C1422      N1423   1.433       .  S
N1423      O1427   1.262       .  A
N1423      O1428   1.262       .  A
N1426      O1430   1.262   1_455  A
N1426      O1429   1.263       .  A
C1431      C1432   1.408       .  A
C1431      C1436   1.408       .  A
C1431      H1438   1.083       .  S
C1432      C1433   1.418       .  A
C1433      C1434   1.398       .  A
C1433      N1440   1.436       .  S
C1434      C1435   1.404       .  A
C1434      H1439   1.084       .  S
C1435      C1436   1.416       .  A
N1437      O1441   1.262       .  A
N1437      O1442   1.263       .  A
N1440      O1444   1.263       .  A
N1440      O1443   1.262       .  A
C1445      C1446   1.410       .  A
C1445      C1450   1.398       .  A
C1445      H1452   1.081       .  S
C1446      C1447   1.422       .  A
C1447      C1448   1.406       .  A
C1447      N1454   1.431       .  S
C1448      C1449   1.400       .  A
C1448      H1453   1.084       .  S
C1449      C1450   1.413       .  A
C1450      N1451   1.442       .  S
N1451      O1455   1.263       .  A
N1451      O1456   1.262       .  A
N1454      O1458   1.262       .  A
N1454      O1457   1.262       .  A
C1459      C1460   1.400       .  A
C1459      C1464   1.398       .  A
C1459      H1466   1.084       .  S
C1460      C1461   1.409       .  A
C1461      C1462   1.401       .  A
C1461      N1468   1.431       .  S
C1462      C1463   1.405       .  A
C1462      H1467   1.084       .  S
C1463      C1464   1.415       .  A
C1464      N1465   1.429       .  S
N1465      O1469   1.262       .  A
N1465      O1470   1.262       .  A
N1468      O1472   1.262       .  A
N1468      O1471   1.262       .  A
C1473      C1474   1.409       .  A
C1473      C1478   1.401       .  A
C1473      H1480   1.083       .  S
C1474      C1475   1.416       .  A
C1475      C1476   1.404       .  A
C1475      N1482   1.428       .  S
C1476      C1477   1.409       .  A
C1476      H1481   1.083       .  S
C1477      C1478   1.414       .  A
C1478      N1479   1.429       .  S
N1479      O1483   1.263       .  A
N1479      O1484   1.261       .  A
N1482      O1486   1.262       .  A
N1482      O1485   1.262       .  A
C1487      C1488   1.402       .  A
C1487      C1492   1.403       .  A
C1487      H1494   1.083       .  S
C1488      C1489   1.415       .  A
C1489      C1490   1.401       .  A
C1489      N1496   1.432       .  S
C1490      C1491   1.407       .  A
C1490      H1495   1.083       .  S
C1491      C1492   1.421       .  A
C1492      N1493   1.432       .  S
N1493      O1497   1.262       .  A
N1493      O1498   1.263       .  A
N1496      O1500   1.262       .  A
N1496      O1499   1.261       .  A
C1501      C1502   1.401       .  A
C1501      C1506   1.395       .  A
C1501      H1508   1.083       .  S
C1502      C1503   1.407       .  A
C1503      C1504   1.404       .  A
C1503      N1510   1.430       .  S
C1504      C1505   1.408       .  A
C1504      H1509   1.083       .  S
C1505      C1506   1.413       .  A
C1506      N1507   1.429       .  S
N1507      O1511   1.262       .  A
N1507      O1512   1.262       .  A
N1510      O1514   1.262       .  A
N1510      O1513   1.262       .  A
C1515      C1516   1.407       .  A
C1515      C1520   1.406       .  A
C1515      H1522   1.083       .  S
C1516      C1517   1.422       .  A
C1517      C1518   1.396       .  A
C1517      N1524   1.432       .  S
C1518      C1519   1.395       .  A
C1518      H1523   1.084   1_565  S
C1519      C1520   1.410       .  A
C1520      N1521   1.432       .  S
N1521      O1525   1.262       .  A
N1521      O1526   1.263       .  A
N1524      O1528   1.263       .  A
N1524      O1527   1.262       .  A
C1529      C1530   1.410       .  A
C1529      C1534   1.408       .  A
C1529      H1536   1.081       .  S
C1530      C1531   1.419       .  A
C1531      C1532   1.403       .  A
C1531      N1538   1.435       .  S
C1532      C1533   1.405       .  A
C1532      H1537   1.073       .  S
C1533      C1534   1.419       .  A
C1534      N1535   1.433       .  S
N1535      O1539   1.262       .  A
N1535      O1540   1.263       .  A
N1538      O1542   1.263       .  A
N1538      O1541   1.262       .  A
C1543      C1544   1.404       .  A
C1543      C1548   1.405       .  A
C1543      H1550   1.084       .  S
C1544      C1545   1.407       .  A
C1545      C1546   1.398       .  A
C1545      N1552   1.429       .  S
C1546      C1547   1.404       .  A
C1547      C1548   1.412       .  A
C1548      N1549   1.430       .  S
N1549      O1553   1.262   1_655  A
N1549      O1554   1.262       .  A
C1557      C1558   1.401       .  A
C1557      C1562   1.409       .  A
C1557      H1564   1.084       .  S
C1558      C1559   1.405       .  A
C1559      C1560   1.393       .  A
C1559      N1566   1.431       .  S
C1560      C1561   1.411       .  A
C1560      H1565   1.082       .  S
C1561      C1562   1.422       .  A
C1562      N1563   1.430       .  S
N1563      O1567   1.262       .  A
N1563      O1568   1.262       .  A
N1566      O1570   1.262       .  A
N1566      O1569   1.262       .  A
C1571      C1572   1.405       .  A
C1571      C1576   1.399       .  A
C1571      H1578   1.084       .  S
C1572      C1573   1.411       .  A
C1573      C1574   1.403       .  A
C1573      N1580   1.429       .  S
C1574      C1575   1.406       .  A
C1574      H1579   1.084       .  S
C1575      C1576   1.412       .  A
C1576      N1577   1.434       .  S
N1577      O1581   1.263       .  A
N1577      O1582   1.262       .  A
N1580      O1584   1.262       .  A
N1580      O1583   1.262       .  A
