geometry optimzed in LAMMPS
_audit_creation_date              2020-11-30 
_audit_creation_method            'lammps2cif' 
_symmetry_space_group_name_H-M    'P1' 
_symmetry_Int_Tables_number       1 
_symmetry_cell_setting            triclinic 
loop_ 
_symmetry_equiv_pos_as_xyz 
  x,y,z 
_cell_length_a                    39.12328562 
_cell_length_b                    38.796342195638275 
_cell_length_c                    34.46907791716415 
_cell_angle_alpha                 87.78235592585494 
_cell_angle_beta                  88.29748094764793 
_cell_angle_gamma                 106.13155304790305 
loop_ 
_atom_site_label 
_atom_site_type_symbol 
_atom_site_fract_x 
_atom_site_fract_y 
_atom_site_fract_z 
_atom_site_charge 
N1          N  0.43654001  0.37004737  0.32867091    -0.03200
C2          C  0.44412718  0.40195598  0.34613773    -0.00600
C3          C  0.41636755  0.41737692  0.34334827    -0.23500
C4          C  0.39019549  0.39412718  0.32432859    -0.23700
C5          C  0.40285762  0.36523982  0.31628932    -0.00700
H6          H  0.41469456  0.44218707  0.35555214     0.13100
H7          H  0.36423152  0.39728752  0.31817997     0.13100
N8          N  0.37450904  0.40001410  0.05203028    -0.03200
C9          C  0.39260120  0.41243753  0.01779419    -0.00600
C10         C  0.39096769  0.44705384  0.00875486    -0.23500
C11         C  0.37300136  0.45705345  0.03899197    -0.23700
C12         C  0.36371735  0.42799740  0.06516670    -0.00700
H13         H  0.40439461  0.46452867  0.98447198     0.13100
H14         H  0.36795462  0.48288482  0.04202998     0.13100
N15         N  0.14322393  0.07227753  0.39152346    -0.03200
C16         C  0.11894681  0.06551767  0.42157247    -0.00600
C17         C  0.12431251  0.09509280  0.44398988    -0.23500
C18         C  0.15250054  0.12122776  0.42657902    -0.23700
C19         C  0.16295476  0.10699744  0.39348674    -0.00700
H20         H  0.10745535  0.09845029  0.46814597     0.13100
H21         H  0.16123826  0.14898048  0.43436699     0.13100
O22         O  0.27830658  0.27434880  0.23272344    -0.74200
O23         O  0.20031510  0.22980936  0.16973655    -0.74200
O24         O  0.21791841  0.22236414  0.24476604    -0.74200
O25         O  0.26253288  0.28475490  0.15785573    -0.74300
O26         O  0.29226029  0.24576810  0.14135083    -0.74200
O27         O  0.24463354  0.18153920  0.22776440    -0.74200
O28         O  0.22966621  0.19089921  0.15209908    -0.74200
O29         O  0.30630386  0.23378807  0.21658796    -0.74200
Ni30       Ni  0.23866423  0.25420473  0.20150526     1.25400
Ni31       Ni  0.26909387  0.21154673  0.18344374     1.25400
C32         C  0.30448713  0.26067803  0.23591413     0.88000
C33         C  0.20160575  0.20175644  0.15185614     0.88000
C34         C  0.22475560  0.19248831  0.25196518     0.88000
C35         C  0.28653840  0.27677608  0.13687488     0.88200
N36         N  0.06046884  0.07274544  0.08750445    -0.03200
C37         C  0.05339254  0.03767349  0.07796391    -0.00600
C38         C  0.08284358  0.02554438  0.08389338    -0.23500
C39         C  0.10877965  0.05309187  0.09769034    -0.23700
C40         C  0.09475382  0.08186259  0.09938735    -0.00700
H41         H  0.08588220  0.99980319  0.07662155     0.13100
H42         H  0.13560513  0.05273304  0.10407183     0.13100
N43         N  0.08122032  0.41478622  0.07606400    -0.03200
C44         C  0.08126009  0.43440274  0.04252719    -0.00600
C45         C  0.11506908  0.45727204  0.03423220    -0.23500
C46         C  0.13609659  0.45239070  0.06388751    -0.23700
C47         C  0.11479366  0.42634229  0.08916838    -0.00700
H48         H  0.12260670  0.47826631  0.01150152     0.13100
H49         H  0.16320152  0.46800891  0.06806748     0.13100
N50         N  0.43825563  0.04111702  0.37992952    -0.03200
C51         C  0.45096590  0.02738373  0.41151159    -0.00600
C52         C  0.46249445  0.05400375  0.43763239    -0.23500
C53         C  0.45833363  0.08520806  0.42100276    -0.23700
C54         C  0.44432137  0.07672134  0.38520191    -0.00700
H55         H  0.47788302  0.05235708  0.46289005     0.13100
H56         H  0.46960884  0.11191650  0.43106080     0.13100
O57         O  0.02176255  0.26791125  0.24091530    -0.74200
O58         O  0.03297884  0.19555525  0.17134942    -0.74200
O59         O  0.04230656  0.26823390  0.16513392    -0.74200
O60         O  0.01231234  0.19633536  0.24734292    -0.74300
O61         O  0.45644181  0.18413491  0.22955430    -0.74200
O62         O  0.48572773  0.25867560  0.14922395    -0.74200
O63         O  0.47688464  0.18600259  0.15368777    -0.74200
O64         O  0.46483725  0.25611980  0.22571778    -0.74200
Ni65       Ni  0.02936537  0.23225340  0.20655862     1.26200
Ni66       Ni  0.46900923  0.22097374  0.18878395     1.25400
C67         C  0.49106305  0.27337464  0.24533719     0.88000
C68         C  0.00672238  0.17838308  0.15173511     0.88000
C69         C  0.01861676  0.27660663  0.14496811     0.88000
C70         C  0.47964724  0.17811691  0.25222956     0.88200
O71         O  0.20624561  0.42258252  0.24523520    -0.74200
O72         O  0.29022633  0.45929874  0.30150722    -0.74200
O73         O  0.21983529  0.46061485  0.30947113    -0.74200
O74         O  0.27517366  0.42398087  0.23426446    -0.74300
O75         O  0.28576024  0.47645244  0.20057475    -0.74200
O76         O  0.23579908  0.01296856  0.27592525    -0.74200
O77         O  0.30418979  0.51110104  0.26654289    -0.74200
O78         O  0.21705059  0.47524758  0.21200593    -0.74200
Ni79       Ni  0.24766877  0.43982884  0.27422336     1.25400
Ni80       Ni  0.26117059  0.49577478  0.23769186     1.25400
C81         C  0.19793302  0.44258091  0.21913853     0.88000
C82         C  0.31151012  0.49049225  0.29324740     0.88000
C83         C  0.21727555  0.49277444  0.30320801     0.88000
C84         C  0.28797281  0.44441849  0.20390670     0.88200
O85         O  0.44774414  0.39910852  0.02320503    -0.80600
O86         O  0.07066470  0.02802893  0.45836396    -0.65300
O87         O  0.48246448  0.46424485  0.49230226    -1.11900
C88         C  0.47360960  0.41748511  0.37087264     1.06300
O89         O  0.07546058  0.01790788  0.39541330    -0.78500
O90         O  0.50306760  0.51141163  0.39573737    -0.66100
Ni91       Ni  0.47799881  0.44205544  0.04340286     1.34900
C92         C  0.47075784  0.50039742  0.40878344     0.85000
O93         O  0.02631855  0.02663694  0.01774355    -0.79100
O94         O  0.00851457  0.98465066  0.06619297    -0.89300
C95         C  0.08682117  0.03475153  0.42545147     0.84600
O96         O  0.01833654  0.42337238  0.03682487    -0.67500
O97         O  0.49275129  0.44881070  0.36099298    -0.86800
C98         C  0.04949437  0.44234433  0.02633734     0.85400
C99         C  0.02539546  0.01656748  0.05347261     1.07000
H100        H  0.04131298  0.44717321  0.43931708     0.38800
O101        O  0.02516151  0.46162273  0.43478050    -1.09500
O102        O  0.45628419  0.46816149  0.42213052    -0.66100
Ni103      Ni  0.47735123  0.43387492  0.44872383     1.26300
O104        O  0.05502752  0.47115479  0.50520163    -0.66400
O105        O  0.47328210  0.40418398  0.40497052    -0.78700
C106        C  0.42260565  0.40114511  0.00152988     0.84800
O107        O  0.42967503  0.40770014  0.46542331    -0.65800
Ni108      Ni  0.03291334  0.48200123  0.38245352     1.27400
Ni109      Ni  0.02674963  0.49531957  0.47578453     1.26100
H110        H  0.46546955  0.47814701  0.49146390     0.39300
C111        C  0.37411028  0.50887847  0.37771853    -0.01600
C112        C  0.40793772  0.02217380  0.35842157     0.08100
C113        C  0.40992504  0.02395012  0.31742757    -0.01700
C114        C  0.37856827  0.01604596  0.29607658    -0.01700
C115        C  0.34479395  0.50217383  0.31538655     0.08200
C116        C  0.34307169  0.49760292  0.35639345    -0.01900
Br117      Br  0.29779551  0.47879411  0.38434615    -0.00400
Br118      Br  0.36931743  0.50961432  0.43356970    -0.00500
Br119      Br  0.38241210  0.02541295  0.24052949    -0.00500
Br120      Br  0.45585239  0.03651186  0.29060973    -0.00500
C121        C  0.49544023  0.13582422  0.30128205    -0.01600
C122        C  0.46916116  0.15032369  0.28496172     0.08100
C123        C  0.43371097  0.13893503  0.30148302    -0.01700
C124        C  0.42578223  0.11580448  0.33514833    -0.01700
C125        C  0.45254954  0.10324834  0.35197591     0.08200
C126        C  0.48730263  0.11326404  0.33503335    -0.01900
Br127      Br  0.52378761  0.09417730  0.35683230    -0.00400
Br128      Br  0.04214488  0.14296793  0.27624024    -0.00500
Br129      Br  0.37830113  0.10149257  0.35892129    -0.00500
Br130      Br  0.39484681  0.15346659  0.27892323    -0.00500
C131        C  0.13928665  0.44299915  0.19300426    -0.01600
C132        C  0.16724297  0.42716416  0.19505454     0.08100
C133        C  0.16887027  0.40066630  0.16891657    -0.01700
C134        C  0.15005404  0.39842291  0.13448523    -0.01700
C135        C  0.12607701  0.41935262  0.12881525     0.08200
C136        C  0.11910034  0.43980261  0.15966295    -0.01900
Br137      Br  0.08605369  0.46795080  0.15516694    -0.00400
Br138      Br  0.12682177  0.46585495  0.23761170    -0.00500
Br139      Br  0.16168346  0.37078532  0.09365955    -0.00500
Br140      Br  0.19784674  0.36861703  0.17947981    -0.00500
C141        C  0.02896440  0.37260342  0.11112401    -0.01600
C142        C  0.05854793  0.37904898  0.08499097     0.08100
C143        C  0.06938933  0.34974166  0.07172895    -0.01700
C144        C  0.05746252  0.31613198  0.09175624    -0.01700
C145        C  0.02905766  0.30978788  0.11959920     0.08200
C146        C  0.01305285  0.33750857  0.12660539    -0.01900
Br147      Br  0.47121847  0.32828250  0.16003755    -0.00400
Br148      Br  0.01017345  0.41121522  0.12594260    -0.00500
Br149      Br  0.08227844  0.28066598  0.08283906    -0.00500
Br150      Br  0.09928786  0.35571160  0.02509117    -0.00500
C151        C  0.00093903  0.11266101  0.14582168    -0.01600
C152        C  0.01067091  0.14782103  0.12867307     0.08100
C153        C  0.02725199  0.15364680  0.09119941    -0.01700
C154        C  0.04028019  0.12676672  0.07471408    -0.01700
C155        C  0.03562627  0.09350924  0.09491090     0.08200
C156        C  0.01271010  0.08529305  0.12850481    -0.01900
Br157      Br  0.00131970  0.03796677  0.15363714    -0.00400
Br158      Br  0.47356547  0.10262702  0.19438734    -0.00500
Br159      Br  0.06523202  0.13506272  0.02485382    -0.00500
Br160      Br  0.03082201  0.19759931  0.06200670    -0.00500
C161        C  0.17330664  0.16545640  0.09664802    -0.01600
C162        C  0.16968619  0.17903232  0.13340574     0.08100
C163        C  0.13810662  0.16383147  0.15622445    -0.01700
C164        C  0.11341469  0.13207577  0.14543457    -0.01700
C165        C  0.11712391  0.11815479  0.10889742     0.08200
C166        C  0.14697439  0.13562223  0.08420699    -0.01900
Br167      Br  0.15448164  0.11613757  0.03509420    -0.00400
Br168      Br  0.21508314  0.18700514  0.06368992    -0.00500
Br169      Br  0.08005372  0.10390415  0.18456773    -0.00500
Br170      Br  0.12944033  0.18435969  0.20400491    -0.00500
C171        C  0.22746488  0.14759534  0.30733679    -0.01600
C172        C  0.20989926  0.17121497  0.28921706     0.08100
C173        C  0.17886199  0.17580399  0.30858562    -0.01700
C174        C  0.16338048  0.15389704  0.34151867    -0.01700
C175        C  0.18056520  0.13008286  0.35887548     0.08200
C176        C  0.21328850  0.12804455  0.34250204    -0.01900
Br177      Br  0.23942637  0.09959954  0.36937572    -0.00400
Br178      Br  0.27269217  0.14361899  0.28686376    -0.00500
Br179      Br  0.11653975  0.15475994  0.36081576    -0.00500
Br180      Br  0.15690396  0.21294081  0.29316220    -0.00500
C181        C  0.15412349  0.04843097  0.32891864    -0.01600
C182        C  0.15350094  0.04570818  0.36947806     0.08100
C183        C  0.16833720  0.02050950  0.38823208    -0.01700
C184        C  0.18565004  0.99993415  0.36628892    -0.01700
C185        C  0.19217139  0.00774146  0.32591971     0.08200
C186        C  0.17586519  0.03231127  0.30725094    -0.01900
Br187      Br  0.18430783  0.04744065  0.25268634    -0.00400
Br188      Br  0.12480239  0.07426979  0.30344293    -0.00500
Br189      Br  0.20244528  0.46345315  0.39278358    -0.00500
Br190      Br  0.16856916  0.01673970  0.44417342    -0.00500
C191        C  0.36108654  0.43576805  0.13685991    -0.01600
C192        C  0.34345761  0.42771764  0.10183608     0.08100
C193        C  0.30690168  0.42426414  0.10084693    -0.01700
C194        C  0.28884251  0.43061773  0.13426463    -0.01700
C195        C  0.30491523  0.43214141  0.17067602     0.08200
C196        C  0.34103537  0.43307998  0.17188757    -0.01900
Br197      Br  0.36377555  0.43426445  0.22083272    -0.00400
Br198      Br  0.41148574  0.45964955  0.13593068    -0.00500
Br199      Br  0.24616463  0.44526077  0.12743222    -0.00500
Br200      Br  0.28278235  0.41585579  0.05256041    -0.00500
C201        C  0.36602310  0.35448423  0.10493074    -0.01600
C202        C  0.35945502  0.36314800  0.06674260     0.08100
C203        C  0.32989014  0.34010011  0.04919100    -0.01700
C204        C  0.30676421  0.31031967  0.07097689    -0.01700
C205        C  0.31114282  0.30563241  0.11120101     0.08200
C206        C  0.33960173  0.33011271  0.12814603    -0.01900
Br207      Br  0.33678980  0.33931240  0.18208391    -0.00400
Br208      Br  0.41167271  0.37551984  0.12489587    -0.00500
Br209      Br  0.26646372  0.27947933  0.04736219    -0.00500
Br210      Br  0.32034016  0.35014981  0.99613270    -0.00500
C211        C  0.34873862  0.31259440  0.31851115    -0.01600
C212        C  0.38069928  0.33276648  0.29898462     0.08100
C213        C  0.38958778  0.32362949  0.26174231    -0.01700
C214        C  0.36779547  0.29333265  0.24499947    -0.01700
C215        C  0.33333144  0.27763288  0.26131236     0.08200
C216        C  0.32463488  0.28564715  0.29916538    -0.01900
Br217      Br  0.27968709  0.25940312  0.32426010    -0.00400
Br218      Br  0.33644086  0.32364812  0.37038126    -0.00500
Br219      Br  0.38365646  0.27603737  0.19791818    -0.00500
Br220      Br  0.42502436  0.35783300  0.22967993    -0.00500
C221        C  0.44943154  0.31130125  0.32872116    -0.01600
C222        C  0.45989191  0.34823794  0.31816134     0.08100
C223        C  0.48798860  0.36116874  0.28974443    -0.01700
C224        C  0.50102136  0.33669823  0.26820772    -0.01700
C225        C  0.48506112  0.29933671  0.27393804     0.08200
C226        C  0.46111268  0.28687613  0.30614566    -0.01900
Br227      Br  0.44457480  0.23627948  0.31967632    -0.00400
Br228      Br  0.41849879  0.29464209  0.37401749    -0.00500
Br229      Br  0.03913045  0.35445605  0.22943579    -0.00500
Br230      Br  0.00517266  0.41187269  0.27615898    -0.00500
N231        N  0.43654006  0.37004736  0.82867088    -0.03200
C232        C  0.44412722  0.40195602  0.84613762    -0.00600
C233        C  0.41636754  0.41737688  0.84334819    -0.23500
C234        C  0.39019546  0.39412705  0.82432864    -0.23700
C235        C  0.40285763  0.36523972  0.81628936    -0.00700
H236        H  0.41469455  0.44218706  0.85555196     0.13100
H237        H  0.36423147  0.39728738  0.81818002     0.13100
N238        N  0.37450901  0.40001408  0.55203021    -0.03200
C239        C  0.39260114  0.41243755  0.51779411    -0.00600
C240        C  0.39096768  0.44705390  0.50875488    -0.23500
C241        C  0.37300130  0.45705343  0.53899198    -0.23700
C242        C  0.36371734  0.42799737  0.56516668    -0.00700
H243        H  0.40439462  0.46452881  0.48447208     0.13100
H244        H  0.36795452  0.48288477  0.54203001     0.13100
N245        N  0.14322393  0.07227751  0.89152354    -0.03200
C246        C  0.11894679  0.06551769  0.92157253    -0.00600
C247        C  0.12431248  0.09509286  0.94398990    -0.23500
C248        C  0.15250055  0.12122781  0.92657905    -0.23700
C249        C  0.16295475  0.10699742  0.89348680    -0.00700
H250        H  0.10745531  0.09845039  0.96814599     0.13100
H251        H  0.16123829  0.14898054  0.93436697     0.13100
O252        O  0.27830657  0.27434865  0.73272353    -0.74200
O253        O  0.20031515  0.22980937  0.66973653    -0.74200
O254        O  0.21791834  0.22236414  0.74476602    -0.74200
O255        O  0.26253296  0.28475486  0.65785585    -0.74300
O256        O  0.29226031  0.24576803  0.64135083    -0.74200
O257        O  0.24463374  0.18153933  0.72776456    -0.74200
O258        O  0.22966620  0.19089910  0.65209925    -0.74200
O259        O  0.30630404  0.23378811  0.71658788    -0.74200
Ni260      Ni  0.23866425  0.25420469  0.70150530     1.25400
Ni261      Ni  0.26909398  0.21154670  0.68344381     1.25400
C262        C  0.30448721  0.26067800  0.73591411     0.88000
C263        C  0.20160577  0.20175640  0.65185620     0.88000
C264        C  0.22475563  0.19248836  0.75196522     0.88000
C265        C  0.28653843  0.27677603  0.63687492     0.88200
N266        N  0.06046885  0.07274535  0.58750454    -0.03200
C267        C  0.05339258  0.03767341  0.57796400    -0.00600
C268        C  0.08284366  0.02554431  0.58389343    -0.23500
C269        C  0.10877973  0.05309185  0.59769030    -0.23700
C270        C  0.09475384  0.08186254  0.59938739    -0.00700
H271        H  0.08588237  0.99980314  0.57662160     0.13100
H272        H  0.13560526  0.05273311  0.60407167     0.13100
N273        N  0.08122039  0.41478629  0.57606398    -0.03200
C274        C  0.08126012  0.43440271  0.54252712    -0.00600
C275        C  0.11506911  0.45727203  0.53423211    -0.23500
C276        C  0.13609665  0.45239080  0.56388747    -0.23700
C277        C  0.11479372  0.42634239  0.58916835    -0.00700
H278        H  0.12260670  0.47826624  0.51150136     0.13100
H279        H  0.16320160  0.46800905  0.56806742     0.13100
N280        N  0.43825563  0.04111710  0.87992954    -0.03200
C281        C  0.45096593  0.02738380  0.91151157    -0.00600
C282        C  0.46249443  0.05400378  0.93763243    -0.23500
C283        C  0.45833358  0.08520810  0.92100283    -0.23700
C284        C  0.44432133  0.07672140  0.88520196    -0.00700
H285        H  0.47788301  0.05235706  0.96289006     0.13100
H286        H  0.46960882  0.11191657  0.93106087     0.13100
O287        O  0.02176257  0.26791140  0.74091531    -0.74200
O288        O  0.03297882  0.19555524  0.67134953    -0.74200
O289        O  0.04230677  0.26823402  0.66513398    -0.74200
O290        O  0.01231235  0.19633550  0.74734295    -0.74300
O291        O  0.45644184  0.18413490  0.72955433    -0.74200
O292        O  0.48572783  0.25867563  0.64922400    -0.74200
O293        O  0.47688467  0.18600253  0.65368781    -0.74200
O294        O  0.46483729  0.25611976  0.72571784    -0.74200
Ni295      Ni  0.02936543  0.23225351  0.70655867     1.26200
Ni296      Ni  0.46900925  0.22097372  0.68878398     1.25400
C297        C  0.49106308  0.27337465  0.74533725     0.88000
C298        C  0.00672236  0.17838300  0.65173520     0.88000
C299        C  0.01861695  0.27660674  0.64496818     0.88000
C300        C  0.47964726  0.17811701  0.75222968     0.88200
O301        O  0.20624565  0.42258256  0.74523515    -0.74200
O302        O  0.29022629  0.45929884  0.80150727    -0.74200
O303        O  0.21983525  0.46061487  0.80947117    -0.74200
O304        O  0.27517370  0.42398103  0.73426446    -0.74300
O305        O  0.28576018  0.47645254  0.70057464    -0.74200
O306        O  0.23579907  0.01296856  0.77592533    -0.74200
O307        O  0.30418993  0.51110106  0.76654277    -0.74200
O308        O  0.21705054  0.47524768  0.71200599    -0.74200
Ni309      Ni  0.24766877  0.43982894  0.77422336     1.25400
Ni310      Ni  0.26117061  0.49577490  0.73769182     1.25400
C311        C  0.19793305  0.44258097  0.71913849     0.88000
C312        C  0.31151016  0.49049229  0.79324741     0.88000
C313        C  0.21727552  0.49277446  0.80320805     0.88000
C314        C  0.28797283  0.44441862  0.70390666     0.88200
O315        O  0.44774407  0.39910859  0.52320500    -0.80600
O316        O  0.07066467  0.02802891  0.95836395    -0.65300
O317        O  0.48246457  0.46424473  0.99230229    -1.11900
C318        C  0.47360963  0.41748520  0.87087252     1.06300
O319        O  0.07546062  0.01790790  0.89541331    -0.78500
O320        O  0.50306758  0.51141162  0.89573743    -0.66100
Ni321      Ni  0.47799878  0.44205552  0.54340282     1.34900
C322        C  0.47075780  0.50039739  0.90878346     0.85000
O323        O  0.02631856  0.02663695  0.51774368    -0.79100
O324        O  0.00851455  0.98465065  0.56619308    -0.89300
C325        C  0.08682118  0.03475153  0.92545150     0.84600
O326        O  0.01833647  0.42337234  0.53682481    -0.67500
O327        O  0.49275138  0.44881077  0.86099283    -0.86800
C328        C  0.04949434  0.44234428  0.52633735     0.85400
C329        C  0.02539548  0.01656746  0.55347273     1.07000
H330        H  0.04131285  0.44717332  0.93931688     0.38800
O331        O  0.02516145  0.46162280  0.93478041    -1.09500
O332        O  0.45628414  0.46816147  0.92213057    -0.66100
Ni333      Ni  0.47735124  0.43387491  0.94872378     1.26300
O334        O  0.05502755  0.47115481  0.00520156    -0.66400
O335        O  0.47328207  0.40418407  0.90497041    -0.78700
C336        C  0.42260560  0.40114517  0.50152983     0.84800
O337        O  0.42967506  0.40770002  0.96542335    -0.65800
Ni338      Ni  0.03291333  0.48200133  0.88245344     1.27400
Ni339      Ni  0.02674961  0.49531960  0.97578454     1.26100
H340        H  0.46546991  0.47814659  0.99146397     0.39300
C341        C  0.37411028  0.50887858  0.87771864    -0.01600
C342        C  0.40793773  0.02217383  0.85842161     0.08100
C343        C  0.40992505  0.02395012  0.81742763    -0.01700
C344        C  0.37856828  0.01604598  0.79607664    -0.01700
C345        C  0.34479398  0.50217378  0.81538663     0.08200
C346        C  0.34307170  0.49760285  0.85639356    -0.01900
Br347      Br  0.29779548  0.47879403  0.88434628    -0.00400
Br348      Br  0.36931745  0.50961451  0.93356982    -0.00500
Br349      Br  0.38241205  0.02541288  0.74052959    -0.00500
Br350      Br  0.45585243  0.03651205  0.79060983    -0.00500
C351        C  0.49544022  0.13582417  0.80128210    -0.01600
C352        C  0.46916122  0.15032378  0.78496183     0.08100
C353        C  0.43371105  0.13893511  0.80148304    -0.01700
C354        C  0.42578230  0.11580453  0.83514832    -0.01700
C355        C  0.45254955  0.10324838  0.85197595     0.08200
C356        C  0.48730262  0.11326399  0.83503340    -0.01900
Br357      Br  0.52378755  0.09417723  0.85683243    -0.00400
Br358      Br  0.04214484  0.14296787  0.77624010    -0.00500
Br359      Br  0.37830125  0.10149250  0.85892117    -0.00500
Br360      Br  0.39484703  0.15346677  0.77892312    -0.00500
C361        C  0.13928662  0.44299909  0.69300426    -0.01600
C362        C  0.16724304  0.42716421  0.69505445     0.08100
C363        C  0.16887044  0.40066643  0.66891643    -0.01700
C364        C  0.15005405  0.39842292  0.63448520    -0.01700
C365        C  0.12607704  0.41935267  0.62881521     0.08200
C366        C  0.11910035  0.43980265  0.65966291    -0.01900
Br367      Br  0.08605374  0.46795096  0.65516681    -0.00400
Br368      Br  0.12682181  0.46585513  0.73761156    -0.00500
Br369      Br  0.16168339  0.37078522  0.59365965    -0.00500
Br370      Br  0.19784701  0.36861723  0.67947965    -0.00500
C371        C  0.02896451  0.37260349  0.61112412    -0.01600
C372        C  0.05854804  0.37904906  0.58499102     0.08100
C373        C  0.06938939  0.34974174  0.57172891    -0.01700
C374        C  0.05746253  0.31613207  0.59175617    -0.01700
C375        C  0.02905776  0.30978798  0.61959925     0.08200
C376        C  0.01305287  0.33750863  0.62660540    -0.01900
Br377      Br  0.47121870  0.32828266  0.66003771    -0.00400
Br378      Br  0.01017342  0.41121517  0.62594273    -0.00500
Br379      Br  0.08227846  0.28066614  0.58283893    -0.00500
Br380      Br  0.09928802  0.35571156  0.52509109    -0.00500
C381        C  0.00093901  0.11266093  0.64582163    -0.01600
C382        C  0.01067092  0.14782098  0.62867309     0.08100
C383        C  0.02725210  0.15364683  0.59119947    -0.01700
C384        C  0.04028026  0.12676672  0.57471407    -0.01700
C385        C  0.03562628  0.09350918  0.59491089     0.08200
C386        C  0.01271005  0.08529296  0.62850477    -0.01900
Br387      Br  0.00131965  0.03796670  0.65363725    -0.00400
Br388      Br  0.47356540  0.10262695  0.69438723    -0.00500
Br389      Br  0.06523203  0.13506288  0.52485372    -0.00500
Br390      Br  0.03082203  0.19759944  0.56200686    -0.00500
C391        C  0.17330665  0.16545636  0.59664811    -0.01600
C392        C  0.16968617  0.17903233  0.63340576     0.08100
C393        C  0.13810660  0.16383145  0.65622445    -0.01700
C394        C  0.11341464  0.13207573  0.64543460    -0.01700
C395        C  0.11712389  0.11815475  0.60889747     0.08200
C396        C  0.14697444  0.13562215  0.58420713    -0.01900
Br397      Br  0.15448165  0.11613771  0.53509428    -0.00400
Br398      Br  0.21508312  0.18700508  0.56369004    -0.00500
Br399      Br  0.08005369  0.10390410  0.68456783    -0.00500
Br400      Br  0.12944032  0.18435986  0.70400477    -0.00500
C401        C  0.22746490  0.14759532  0.80733676    -0.01600
C402        C  0.20989923  0.17121494  0.78921706     0.08100
C403        C  0.17886195  0.17580394  0.80858565    -0.01700
C404        C  0.16338045  0.15389700  0.84151874    -0.01700
C405        C  0.18056519  0.13008282  0.85887552     0.08200
C406        C  0.21328852  0.12804454  0.84250205    -0.01900
Br407      Br  0.23942661  0.09959970  0.86937561    -0.00400
Br408      Br  0.27269228  0.14361894  0.78686365    -0.00500
Br409      Br  0.11653971  0.15475988  0.86081588    -0.00500
Br410      Br  0.15690390  0.21294071  0.79316209    -0.00500
C411        C  0.15412352  0.04843095  0.82891873    -0.01600
C412        C  0.15350093  0.04570813  0.86947814     0.08100
C413        C  0.16833715  0.02050942  0.88823218    -0.01700
C414        C  0.18564999  0.99993406  0.86628901    -0.01700
C415        C  0.19217133  0.00774138  0.82591979     0.08200
C416        C  0.17586516  0.03231119  0.80725102    -0.01900
Br417      Br  0.18430778  0.04744057  0.75268644    -0.00400
Br418      Br  0.12480234  0.07426971  0.80344307    -0.00500
Br419      Br  0.20244522  0.46345307  0.89278369    -0.00500
Br420      Br  0.16856909  0.01673963  0.94417354    -0.00500
C421        C  0.36108651  0.43576795  0.63685990    -0.01600
C422        C  0.34345760  0.42771759  0.60183605     0.08100
C423        C  0.30690171  0.42426430  0.60084685    -0.01700
C424        C  0.28884255  0.43061792  0.63426458    -0.01700
C425        C  0.30491524  0.43214153  0.67067597     0.08200
C426        C  0.34103533  0.43307993  0.67188753    -0.01900
Br427      Br  0.36377550  0.43426438  0.72083262    -0.00400
Br428      Br  0.41148569  0.45964946  0.63593080    -0.00500
Br429      Br  0.24616466  0.44526096  0.62743231    -0.00500
Br430      Br  0.28278238  0.41585600  0.55256029    -0.00500
C431        C  0.36602312  0.35448426  0.60493073    -0.01600
C432        C  0.35945504  0.36314799  0.56674256     0.08100
C433        C  0.32989011  0.34010017  0.54919103    -0.01700
C434        C  0.30676418  0.31031975  0.57097694    -0.01700
C435        C  0.31114282  0.30563243  0.61120105     0.08200
C436        C  0.33960171  0.33011278  0.62814606    -0.01900
Br437      Br  0.33678998  0.33931232  0.68208403    -0.00400
Br438      Br  0.41167287  0.37551976  0.62489572    -0.00500
Br439      Br  0.26646370  0.27947949  0.54736231    -0.00500
Br440      Br  0.32033996  0.35014989  0.49613280    -0.00500
C441        C  0.34873863  0.31259432  0.81851112    -0.01600
C442        C  0.38069932  0.33276638  0.79898462     0.08100
C443        C  0.38958779  0.32362945  0.76174226    -0.01700
C444        C  0.36779553  0.29333259  0.74499943    -0.01700
C445        C  0.33333147  0.27763288  0.76131230     0.08200
C446        C  0.32463487  0.28564714  0.79916531    -0.01900
Br447      Br  0.27968704  0.25940306  0.82425997    -0.00400
Br448      Br  0.33644080  0.32364806  0.87038115    -0.00500
Br449      Br  0.38365663  0.27603731  0.69791809    -0.00500
Br450      Br  0.42502432  0.35783294  0.72967981    -0.00500
C451        C  0.44943160  0.31130123  0.82872119    -0.01600
C452        C  0.45989199  0.34823796  0.81816139     0.08100
C453        C  0.48798873  0.36116881  0.78974454    -0.01700
C454        C  0.50102142  0.33669828  0.76820781    -0.01700
C455        C  0.48506112  0.29933674  0.77393806     0.08200
C456        C  0.46111267  0.28687611  0.80614564    -0.01900
Br457      Br  0.44457499  0.23627943  0.81967645    -0.00400
Br458      Br  0.41849899  0.29464203  0.87401762    -0.00500
Br459      Br  0.03913067  0.35445620  0.72943597    -0.00500
Br460      Br  0.00517288  0.41187282  0.77615888    -0.00500
N461        N  0.43654003  0.87004738  0.32867095    -0.03200
C462        C  0.44412720  0.90195601  0.34613773    -0.00600
C463        C  0.41636757  0.91737694  0.34334824    -0.23500
C464        C  0.39019549  0.89412713  0.32432863    -0.23700
C465        C  0.40285760  0.86523974  0.31628945    -0.00700
H466        H  0.41469461  0.94218715  0.35555203     0.13100
H467        H  0.36423152  0.89728748  0.31817993     0.13100
N468        N  0.37450905  0.90001405  0.05203018    -0.03200
C469        C  0.39260121  0.91243749  0.01779410    -0.00600
C470        C  0.39096769  0.94705379  0.00875476    -0.23500
C471        C  0.37300131  0.95705337  0.03899183    -0.23700
C472        C  0.36371733  0.92799733  0.06516657    -0.00700
H473        H  0.40439465  0.96452864  0.98447193     0.13100
H474        H  0.36795460  0.98288476  0.04202980     0.13100
N475        N  0.14322396  0.57227770  0.39152351    -0.03200
C476        C  0.11894680  0.56551779  0.42157248    -0.00600
C477        C  0.12431244  0.59509294  0.44398987    -0.23500
C478        C  0.15250045  0.62122795  0.42657903    -0.23700
C479        C  0.16295476  0.60699762  0.39348681    -0.00700
H480        H  0.10745524  0.59845043  0.46814593     0.13100
H481        H  0.16123807  0.64898068  0.43436697     0.13100
O482        O  0.27830657  0.77434873  0.23272342    -0.74200
O483        O  0.20031513  0.72980930  0.16973654    -0.74200
O484        O  0.21791841  0.72236425  0.24476605    -0.74200
O485        O  0.26253296  0.78475484  0.15785571    -0.74300
O486        O  0.29226031  0.74576800  0.14135075    -0.74200
O487        O  0.24463354  0.68153929  0.22776445    -0.74200
O488        O  0.22966622  0.69089913  0.15209908    -0.74200
O489        O  0.30630387  0.73378802  0.21658793    -0.74200
Ni490      Ni  0.23866426  0.75420471  0.20150523     1.25400
Ni491      Ni  0.26909388  0.71154668  0.18344373     1.25400
C492        C  0.30448714  0.76067799  0.23591408     0.88000
C493        C  0.20160578  0.70175637  0.15185614     0.88000
C494        C  0.22475562  0.69248844  0.25196523     0.88000
C495        C  0.28653844  0.77677600  0.13687481     0.88200
N496        N  0.06046885  0.57274541  0.08750445    -0.03200
C497        C  0.05339254  0.53767346  0.07796392    -0.00600
C498        C  0.08284360  0.52554436  0.08389334    -0.23500
C499        C  0.10877967  0.55309184  0.09769031    -0.23700
C500        C  0.09475384  0.58186257  0.09938733    -0.00700
H501        H  0.08588227  0.49980322  0.07662144     0.13100
H502        H  0.13560518  0.55273305  0.10407172     0.13100
N503        N  0.08122033  0.91478619  0.07606393    -0.03200
C504        C  0.08126008  0.93440265  0.04252710    -0.00600
C505        C  0.11506906  0.95727200  0.03423215    -0.23500
C506        C  0.13609656  0.95239075  0.06388752    -0.23700
C507        C  0.11479366  0.92634228  0.08916834    -0.00700
H508        H  0.12260667  0.97826624  0.01150144     0.13100
H509        H  0.16320149  0.96800898  0.06806751     0.13100
N510        N  0.43825577  0.54111708  0.37992952    -0.03200
C511        C  0.45096599  0.52738378  0.41151162    -0.00600
C512        C  0.46249453  0.55400378  0.43763243    -0.23500
C513        C  0.45833385  0.58520813  0.42100273    -0.23700
C514        C  0.44432156  0.57672140  0.38520189    -0.00700
H515        H  0.47788306  0.55235705  0.46289009     0.13100
H516        H  0.46960916  0.61191660  0.43106074     0.13100
O517        O  0.02176256  0.76791132  0.24091530    -0.74200
O518        O  0.03297876  0.69555526  0.17134942    -0.74200
O519        O  0.04230658  0.76823403  0.16513396    -0.74200
O520        O  0.01231236  0.69633547  0.24734298    -0.74300
O521        O  0.45644186  0.68413499  0.22955432    -0.74200
O522        O  0.48572785  0.75867563  0.14922394    -0.74200
O523        O  0.47688469  0.68600254  0.15368776    -0.74200
O524        O  0.46483726  0.75611978  0.22571779    -0.74200
Ni525      Ni  0.02936537  0.73225348  0.20655863     1.26200
Ni526      Ni  0.46900928  0.72097375  0.18878394     1.25400
C527        C  0.49106306  0.77337470  0.24533715     0.88000
C528        C  0.00672231  0.67838303  0.15173510     0.88000
C529        C  0.01861676  0.77660670  0.14496813     0.88000
C530        C  0.47964732  0.67811705  0.25222958     0.88200
O531        O  0.20624563  0.92258229  0.24523501    -0.74200
O532        O  0.29022625  0.95929862  0.30150723    -0.74200
O533        O  0.21983517  0.96061460  0.30947106    -0.74200
O534        O  0.27517369  0.92398079  0.23426442    -0.74300
O535        O  0.28576020  0.97645235  0.20057471    -0.74200
O536        O  0.23579914  0.51296877  0.27592526    -0.74200
O537        O  0.30418974  0.01110090  0.26654286    -0.74200
O538        O  0.21705043  0.97524742  0.21200593    -0.74200
Ni539      Ni  0.24766873  0.93982868  0.27422329     1.25400
Ni540      Ni  0.26117052  0.99577465  0.23769183     1.25400
C541        C  0.19793295  0.94258070  0.21913842     0.88000
C542        C  0.31151006  0.99049212  0.29324739     0.88000
C543        C  0.21727544  0.99277420  0.30320794     0.88000
C544        C  0.28797280  0.94441841  0.20390665     0.88200
O545        O  0.44774416  0.89910857  0.02320499    -0.80600
O546        O  0.07066471  0.52802890  0.45836392    -0.65300
O547        O  0.48246446  0.96424486  0.49230227    -1.11900
C548        C  0.47360963  0.91748518  0.37087262     1.06300
O549        O  0.07546062  0.51790792  0.39541328    -0.78500
O550        O  0.50306757  0.01141166  0.39573741    -0.66100
Ni551      Ni  0.47799880  0.94205554  0.04340274     1.34900
C552        C  0.47075779  0.00039738  0.40878343     0.85000
O553        O  0.02631856  0.52663693  0.01774356    -0.79100
O554        O  0.00851460  0.48465062  0.06619299    -0.89300
C555        C  0.08682118  0.53475158  0.42545145     0.84600
O556        O  0.01833645  0.92337239  0.03682491    -0.67500
O557        O  0.49275131  0.94881080  0.36099296    -0.86800
C558        C  0.04949431  0.94234425  0.02633732     0.85400
C559        C  0.02539546  0.51656746  0.05347263     1.07000
H560        H  0.04131295  0.94717318  0.43931713     0.38800
O561        O  0.02516148  0.96162272  0.43478055    -1.09500
O562        O  0.45628418  0.96816144  0.42213051    -0.66100
Ni563      Ni  0.47735126  0.93387493  0.44872382     1.26300
O564        O  0.05502752  0.97115476  0.50520165    -0.66400
O565        O  0.47328214  0.90418403  0.40497049    -0.78700
C566        C  0.42260568  0.90114510  0.00152984     0.84800
O567        O  0.42967512  0.90770001  0.46542331    -0.65800
Ni568      Ni  0.03291331  0.98200118  0.38245355     1.27400
Ni569      Ni  0.02674963  0.99531960  0.47578462     1.26100
H570        H  0.46546929  0.97814708  0.49146389     0.39300
C571        C  0.37411019  0.00887839  0.37771850    -0.01600
C572        C  0.40793783  0.52217384  0.35842161     0.08100
C573        C  0.40992511  0.52395010  0.31742761    -0.01700
C574        C  0.37856834  0.51604603  0.29607662    -0.01700
C575        C  0.34479388  0.00217369  0.31538652     0.08200
C576        C  0.34307161  0.99760280  0.35639342    -0.01900
Br577      Br  0.29779546  0.97879401  0.38434616    -0.00400
Br578      Br  0.36931744  0.00961439  0.43356968    -0.00500
Br579      Br  0.38241210  0.52541288  0.24052950    -0.00500
Br580      Br  0.45585240  0.53651179  0.29060972    -0.00500
C581        C  0.49544028  0.63582418  0.30128194    -0.01600
C582        C  0.46916128  0.65032377  0.28496170     0.08100
C583        C  0.43371113  0.63893509  0.30148299    -0.01700
C584        C  0.42578242  0.61580457  0.33514833    -0.01700
C585        C  0.45254969  0.60324837  0.35197586     0.08200
C586        C  0.48730270  0.61326399  0.33503322    -0.01900
Br587      Br  0.52378763  0.59417721  0.35683204    -0.00400
Br588      Br  0.04214483  0.64296785  0.27624027    -0.00500
Br589      Br  0.37830139  0.60149274  0.35892132    -0.00500
Br590      Br  0.39484707  0.65346676  0.27892324    -0.00500
C591        C  0.13928653  0.94299887  0.19300426    -0.01600
C592        C  0.16724288  0.92716392  0.19505449     0.08100
C593        C  0.16887026  0.90066617  0.16891645    -0.01700
C594        C  0.15005401  0.89842280  0.13448514    -0.01700
C595        C  0.12607700  0.91935254  0.12881518     0.08200
C596        C  0.11910029  0.93980247  0.15966289    -0.01900
Br597      Br  0.08605370  0.96795073  0.15516670    -0.00400
Br598      Br  0.12682166  0.96585460  0.23761171    -0.00500
Br599      Br  0.16168343  0.87078522  0.09365952    -0.00500
Br600      Br  0.19784672  0.86861692  0.17947979    -0.00500
C601        C  0.02896443  0.87260345  0.11112400    -0.01600
C602        C  0.05854795  0.87904898  0.08499095     0.08100
C603        C  0.06938934  0.84974165  0.07172896    -0.01700
C604        C  0.05746251  0.81613198  0.09175624    -0.01700
C605        C  0.02905765  0.80978793  0.11959920     0.08200
C606        C  0.01305286  0.83750863  0.12660537    -0.01900
Br607      Br  0.47121852  0.82828266  0.16003756    -0.00400
Br608      Br  0.01017343  0.91121517  0.12594259    -0.00500
Br609      Br  0.08227840  0.78066593  0.08283907    -0.00500
Br610      Br  0.09928784  0.85571153  0.02509117    -0.00500
C611        C  0.00093902  0.61266096  0.14582166    -0.01600
C612        C  0.01067089  0.64782099  0.12867305     0.08100
C613        C  0.02725197  0.65364678  0.09119938    -0.01700
C614        C  0.04028020  0.62676670  0.07471407    -0.01700
C615        C  0.03562630  0.59350922  0.09491091     0.08200
C616        C  0.01271011  0.58529300  0.12850482    -0.01900
Br617      Br  0.00131967  0.53796670  0.15363714    -0.00400
Br618      Br  0.47356551  0.60262717  0.19438734    -0.00500
Br619      Br  0.06523207  0.63506287  0.02485383    -0.00500
Br620      Br  0.03082205  0.69759943  0.06200673    -0.00500
C621        C  0.17330669  0.66545634  0.09664804    -0.01600
C622        C  0.16968622  0.67903229  0.13340573     0.08100
C623        C  0.13810662  0.66383152  0.15622439    -0.01700
C624        C  0.11341471  0.63207580  0.14543452    -0.01700
C625        C  0.11712394  0.61815477  0.10889740     0.08200
C626        C  0.14697447  0.63562216  0.08420703    -0.01900
Br627      Br  0.15448168  0.61613771  0.03509416    -0.00400
Br628      Br  0.21508314  0.68700507  0.06368991    -0.00500
Br629      Br  0.08005376  0.60390432  0.18456772    -0.00500
Br630      Br  0.12944037  0.68435984  0.20400487    -0.00500
C631        C  0.22746491  0.64759553  0.30733685    -0.01600
C632        C  0.20989928  0.67121512  0.28921712     0.08100
C633        C  0.17886197  0.67580405  0.30858566    -0.01700
C634        C  0.16338036  0.65389708  0.34151865    -0.01700
C635        C  0.18056519  0.63008305  0.35887557     0.08200
C636        C  0.21328854  0.62804482  0.34250216    -0.01900
Br637      Br  0.23942650  0.59959995  0.36937576    -0.00400
Br638      Br  0.27269221  0.64361918  0.28686377    -0.00500
Br639      Br  0.11653960  0.65476010  0.36081575    -0.00500
Br640      Br  0.15690392  0.71294077  0.29316219    -0.00500
C641        C  0.15412356  0.54843111  0.32891871    -0.01600
C642        C  0.15350101  0.54570835  0.36947815     0.08100
C643        C  0.16833725  0.52050966  0.38823222    -0.01700
C644        C  0.18565005  0.49993429  0.36628902    -0.01700
C645        C  0.19217147  0.50774167  0.32591980     0.08200
C646        C  0.17586530  0.53231149  0.30725100    -0.01900
Br647      Br  0.18430818  0.54744108  0.25268639    -0.00400
Br648      Br  0.12480236  0.57426973  0.30344294    -0.00500
Br649      Br  0.20244527  0.96345305  0.39278356    -0.00500
Br650      Br  0.16856920  0.51673988  0.44417364    -0.00500
C651        C  0.36108655  0.93576801  0.13685977    -0.01600
C652        C  0.34345761  0.92771758  0.10183596     0.08100
C653        C  0.30690168  0.92426405  0.10084684    -0.01700
C654        C  0.28884250  0.93061762  0.13426455    -0.01700
C655        C  0.30491522  0.93214134  0.17067593     0.08200
C656        C  0.34103536  0.93307991  0.17188742    -0.01900
Br657      Br  0.36377555  0.93426438  0.22083247    -0.00400
Br658      Br  0.41148576  0.95964970  0.13593065    -0.00500
Br659      Br  0.24616452  0.94526044  0.12743221    -0.00500
Br660      Br  0.28278232  0.91585570  0.05256037    -0.00500
C661        C  0.36602312  0.85448421  0.10493069    -0.01600
C662        C  0.35945510  0.86314794  0.06674251     0.08100
C663        C  0.32989019  0.84010010  0.04919096    -0.01700
C664        C  0.30676427  0.81031967  0.07097685    -0.01700
C665        C  0.31114286  0.80563238  0.11120096     0.08200
C666        C  0.33960170  0.83011275  0.12814598    -0.01900
Br667      Br  0.33678978  0.83931232  0.18208391    -0.00400
Br668      Br  0.41167271  0.87551978  0.12489588    -0.00500
Br669      Br  0.26646392  0.77947923  0.04736217    -0.00500
Br670      Br  0.32034014  0.85014974  0.99613268    -0.00500
C671        C  0.34873861  0.81259433  0.31851113    -0.01600
C672        C  0.38069928  0.83276642  0.29898466     0.08100
C673        C  0.38958780  0.82362945  0.26174234    -0.01700
C674        C  0.36779552  0.79333265  0.24499945    -0.01700
C675        C  0.33333146  0.77763290  0.26131226     0.08200
C676        C  0.32463489  0.78564717  0.29916527    -0.01900
Br677      Br  0.27968710  0.75940328  0.32425986    -0.00400
Br678      Br  0.33644083  0.82364803  0.37038126    -0.00500
Br679      Br  0.38365672  0.77603751  0.19791817    -0.00500
Br680      Br  0.42502435  0.85783294  0.22967995    -0.00500
C681        C  0.44943156  0.81130125  0.32872115    -0.01600
C682        C  0.45989195  0.84823797  0.31816137     0.08100
C683        C  0.48798869  0.86116882  0.28974450    -0.01700
C684        C  0.50102141  0.83669831  0.26820773    -0.01700
C685        C  0.48506112  0.79933677  0.27393800     0.08200
C686        C  0.46111272  0.78687614  0.30614564    -0.01900
Br687      Br  0.44457503  0.73627944  0.31967633    -0.00400
Br688      Br  0.41849878  0.79464202  0.37401747    -0.00500
Br689      Br  0.03913069  0.85445620  0.22943584    -0.00500
Br690      Br  0.00517269  0.91187281  0.27615899    -0.00500
N691        N  0.43654009  0.87004740  0.82867085    -0.03200
C692        C  0.44412723  0.90195606  0.84613759    -0.00600
C693        C  0.41636753  0.91737691  0.84334816    -0.23500
C694        C  0.39019545  0.89412703  0.82432865    -0.23700
C695        C  0.40285764  0.86523970  0.81628939    -0.00700
H696        H  0.41469450  0.94218708  0.85555196     0.13100
H697        H  0.36423143  0.89728729  0.81818005     0.13100
N698        N  0.37450906  0.90001404  0.55203013    -0.03200
C699        C  0.39260130  0.91243757  0.51779410    -0.00600
C700        C  0.39096772  0.94705387  0.50875477    -0.23500
C701        C  0.37300128  0.95705335  0.53899187    -0.23700
C702        C  0.36371730  0.92799728  0.56516657    -0.00700
H703        H  0.40439465  0.96452880  0.48447197     0.13100
H704        H  0.36795454  0.98288471  0.54202997     0.13100
N705        N  0.14322397  0.57227768  0.89152360    -0.03200
C706        C  0.11894680  0.56551782  0.92157256    -0.00600
C707        C  0.12431242  0.59509300  0.94398992    -0.23500
C708        C  0.15250043  0.62122800  0.92657906    -0.23700
C709        C  0.16295474  0.60699762  0.89348686    -0.00700
H710        H  0.10745524  0.59845050  0.96814600     0.13100
H711        H  0.16123807  0.64898074  0.93436697     0.13100
O712        O  0.27830662  0.77434870  0.73272349    -0.74200
O713        O  0.20031521  0.72980940  0.66973650    -0.74200
O714        O  0.21791845  0.72236414  0.74476602    -0.74200
O715        O  0.26253301  0.78475481  0.65785580    -0.74300
O716        O  0.29226036  0.74576794  0.64135088    -0.74200
O717        O  0.24463370  0.68153921  0.72776455    -0.74200
O718        O  0.22966624  0.69089910  0.65209924    -0.74200
O719        O  0.30630397  0.73378800  0.71658804    -0.74200
Ni720      Ni  0.23866431  0.75420469  0.70150528     1.25400
Ni721      Ni  0.26909399  0.71154662  0.68344385     1.25400
C722        C  0.30448720  0.76067798  0.73591416     0.88000
C723        C  0.20160583  0.70175643  0.65185617     0.88000
C724        C  0.22475566  0.69248833  0.75196522     0.88000
C725        C  0.28653850  0.77677594  0.63687492     0.88200
N726        N  0.06046881  0.57274541  0.58750448    -0.03200
C727        C  0.05339253  0.53767345  0.57796393    -0.00600
C728        C  0.08284366  0.52554442  0.58389326    -0.23500
C729        C  0.10877972  0.55309195  0.59769016    -0.23700
C730        C  0.09475384  0.58186263  0.59938724    -0.00700
H731        H  0.08588238  0.49980329  0.57662133     0.13100
H732        H  0.13560525  0.55273326  0.60407153     0.13100
N733        N  0.08122038  0.91478621  0.57606396    -0.03200
C734        C  0.08126011  0.93440264  0.54252711    -0.00600
C735        C  0.11506909  0.95727196  0.53423211    -0.23500
C736        C  0.13609663  0.95239073  0.56388746    -0.23700
C737        C  0.11479370  0.92634231  0.58916834    -0.00700
H738        H  0.12260667  0.97826619  0.51150140     0.13100
H739        H  0.16320157  0.96800898  0.56806744     0.13100
N740        N  0.43825580  0.54111715  0.87992956    -0.03200
C741        C  0.45096598  0.52738380  0.91151164    -0.00600
C742        C  0.46249451  0.55400380  0.93763247    -0.23500
C743        C  0.45833385  0.58520816  0.92100280    -0.23700
C744        C  0.44432161  0.57672147  0.88520194    -0.00700
H745        H  0.47788310  0.55235710  0.96289011     0.13100
H746        H  0.46960922  0.61191660  0.93106080     0.13100
O747        O  0.02176255  0.76791134  0.74091535    -0.74200
O748        O  0.03297876  0.69555516  0.67134956    -0.74200
O749        O  0.04230661  0.76823390  0.66513396    -0.74200
O750        O  0.01231234  0.69633546  0.74734308    -0.74300
O751        O  0.45644191  0.68413495  0.72955429    -0.74200
O752        O  0.48572783  0.75867558  0.64922395    -0.74200
O753        O  0.47688471  0.68600256  0.65368778    -0.74200
O754        O  0.46483739  0.75611986  0.72571767    -0.74200
Ni755      Ni  0.02936537  0.73225343  0.70655872     1.26200
Ni756      Ni  0.46900930  0.72097373  0.68878392     1.25400
C757        C  0.49106316  0.77337469  0.74533715     0.88000
C758        C  0.00672230  0.67838297  0.65173523     0.88000
C759        C  0.01861678  0.77660664  0.64496822     0.88000
C760        C  0.47964736  0.67811697  0.75222953     0.88200
O761        O  0.20624559  0.92258237  0.74523518    -0.74200
O762        O  0.29022625  0.95929875  0.80150723    -0.74200
O763        O  0.21983517  0.96061462  0.80947117    -0.74200
O764        O  0.27517369  0.92398093  0.73426445    -0.74300
O765        O  0.28576016  0.97645243  0.70057463    -0.74200
O766        O  0.23579919  0.51296883  0.77592535    -0.74200
O767        O  0.30418977  0.01110099  0.76654280    -0.74200
O768        O  0.21705046  0.97524742  0.71200592    -0.74200
Ni769      Ni  0.24766873  0.93982879  0.77422335     1.25400
Ni770      Ni  0.26117051  0.99577469  0.73769181     1.25400
C771        C  0.19793295  0.94258072  0.71913850     0.88000
C772        C  0.31151007  0.99049223  0.79324738     0.88000
C773        C  0.21727542  0.99277419  0.80320802     0.88000
C774        C  0.28797282  0.94441851  0.70390666     0.88200
O775        O  0.44774424  0.89910861  0.52320497    -0.80600
O776        O  0.07066471  0.52802891  0.95836396    -0.65300
O777        O  0.48246443  0.96424488  0.99230219    -1.11900
C778        C  0.47360962  0.91748521  0.87087253     1.06300
O779        O  0.07546062  0.51790802  0.89541328    -0.78500
O780        O  0.50306754  0.01141165  0.89573723    -0.66100
Ni781      Ni  0.47799880  0.94205553  0.54340283     1.34900
C782        C  0.47075777  0.00039741  0.90878332     0.85000
O783        O  0.02631853  0.52663689  0.51774357    -0.79100
O784        O  0.00851458  0.48465063  0.56619302    -0.89300
C785        C  0.08682121  0.53475159  0.92545150     0.84600
O786        O  0.01833649  0.92337239  0.53682503    -0.67500
O787        O  0.49275141  0.94881076  0.86099282    -0.86800
C788        C  0.04949434  0.94234426  0.52633741     0.85400
C789        C  0.02539545  0.51656744  0.55347265     1.07000
H790        H  0.04131283  0.94717323  0.93931687     0.38800
O791        O  0.02516144  0.96162272  0.93478040    -1.09500
O792        O  0.45628412  0.96816147  0.92213036    -0.66100
Ni793      Ni  0.47735121  0.93387499  0.94872373     1.26300
O794        O  0.05502753  0.97115475  0.00520155    -0.66400
O795        O  0.47328210  0.90418408  0.90497042    -0.78700
C796        C  0.42260575  0.90114516  0.50152984     0.84800
O797        O  0.42967509  0.90770002  0.96542331    -0.65800
Ni798      Ni  0.03291332  0.98200128  0.88245346     1.27400
Ni799      Ni  0.02674960  0.99531956  0.97578452     1.26100
H800        H  0.46546928  0.97814710  0.99146381     0.39300
C801        C  0.37411020  0.00887842  0.87771855    -0.01600
C802        C  0.40793783  0.52217397  0.85842169     0.08100
C803        C  0.40992513  0.52395019  0.81742772    -0.01700
C804        C  0.37856838  0.51604601  0.79607673    -0.01700
C805        C  0.34479389  0.00217371  0.81538656     0.08200
C806        C  0.34307161  0.99760277  0.85639348    -0.01900
Br807      Br  0.29779544  0.97879395  0.88434626    -0.00400
Br808      Br  0.36931740  0.00961432  0.93356978    -0.00500
Br809      Br  0.38241226  0.52541280  0.74052962    -0.00500
Br810      Br  0.45585243  0.53651197  0.79060985    -0.00500
C811        C  0.49544034  0.63582422  0.80128197    -0.01600
C812        C  0.46916131  0.65032376  0.78496169     0.08100
C813        C  0.43371115  0.63893515  0.80148302    -0.01700
C814        C  0.42578243  0.61580458  0.83514834    -0.01700
C815        C  0.45254975  0.60324843  0.85197590     0.08200
C816        C  0.48730278  0.61326399  0.83503323    -0.01900
Br817      Br  0.52378776  0.59417716  0.85683214    -0.00400
Br818      Br  0.04214479  0.64296779  0.77624038    -0.00500
Br819      Br  0.37830137  0.60149268  0.85892142    -0.00500
Br820      Br  0.39484704  0.65346669  0.77892312    -0.00500
C821        C  0.13928648  0.94299875  0.69300435    -0.01600
C822        C  0.16724290  0.92716390  0.69505451     0.08100
C823        C  0.16887031  0.90066618  0.66891643    -0.01700
C824        C  0.15005401  0.89842279  0.63448513    -0.01700
C825        C  0.12607702  0.91935253  0.62881519     0.08200
C826        C  0.11910027  0.93980238  0.65966296    -0.01900
Br827      Br  0.08605393  0.96795090  0.65516681    -0.00400
Br828      Br  0.12682161  0.96585450  0.73761183    -0.00500
Br829      Br  0.16168347  0.87078540  0.59365937    -0.00500
Br830      Br  0.19784699  0.86861711  0.67947964    -0.00500
C831        C  0.02896449  0.87260345  0.61112414    -0.01600
C832        C  0.05854800  0.87904899  0.58499103     0.08100
C833        C  0.06938935  0.84974166  0.57172899    -0.01700
C834        C  0.05746251  0.81613201  0.59175633    -0.01700
C835        C  0.02905767  0.80978792  0.61959931     0.08200
C836        C  0.01305284  0.83750860  0.62660544    -0.01900
Br837      Br  0.47121868  0.82828258  0.66003770    -0.00400
Br838      Br  0.01017340  0.91121511  0.62594274    -0.00500
Br839      Br  0.08227844  0.78066605  0.58283920    -0.00500
Br840      Br  0.09928776  0.85571145  0.52509107    -0.00500
C841        C  0.00093900  0.61266094  0.64582163    -0.01600
C842        C  0.01067086  0.64782097  0.62867309     0.08100
C843        C  0.02725200  0.65364682  0.59119946    -0.01700
C844        C  0.04028026  0.62676678  0.57471409    -0.01700
C845        C  0.03562626  0.59350922  0.59491088     0.08200
C846        C  0.01271005  0.58529297  0.62850478    -0.01900
Br847      Br  0.00131963  0.53796665  0.65363724    -0.00400
Br848      Br  0.47356545  0.60262710  0.69438721    -0.00500
Br849      Br  0.06523208  0.63506305  0.52485373    -0.00500
Br850      Br  0.03082199  0.69759940  0.56200686    -0.00500
C851        C  0.17330667  0.66545640  0.59664806    -0.01600
C852        C  0.16968623  0.67903237  0.63340573     0.08100
C853        C  0.13810667  0.66383151  0.65622439    -0.01700
C854        C  0.11341470  0.63207582  0.64543449    -0.01700
C855        C  0.11712391  0.61815483  0.60889735     0.08200
C856        C  0.14697448  0.63562217  0.58420703    -0.01900
Br857      Br  0.15448164  0.61613768  0.53509408    -0.00400
Br858      Br  0.21508311  0.68700501  0.56369002    -0.00500
Br859      Br  0.08005370  0.60390425  0.68456760    -0.00500
Br860      Br  0.12944053  0.68435979  0.70400481    -0.00500
C861        C  0.22746491  0.64759545  0.80733687    -0.01600
C862        C  0.20989926  0.67121502  0.78921710     0.08100
C863        C  0.17886195  0.67580406  0.80858564    -0.01700
C864        C  0.16338034  0.65389707  0.84151865    -0.01700
C865        C  0.18056514  0.63008299  0.85887556     0.08200
C866        C  0.21328848  0.62804472  0.84250215    -0.01900
Br867      Br  0.23942643  0.59959988  0.86937589    -0.00400
Br868      Br  0.27269234  0.64361911  0.78686392    -0.00500
Br869      Br  0.11653954  0.65476003  0.86081561    -0.00500
Br870      Br  0.15690396  0.71294090  0.79316208    -0.00500
C871        C  0.15412358  0.54843117  0.82891875    -0.01600
C872        C  0.15350097  0.54570832  0.86947818     0.08100
C873        C  0.16833718  0.52050959  0.88823220    -0.01700
C874        C  0.18565000  0.49993421  0.86628903    -0.01700
C875        C  0.19217142  0.50774163  0.82591982     0.08200
C876        C  0.17586532  0.53231152  0.80725105    -0.01900
Br877      Br  0.18430813  0.54744103  0.75268648    -0.00400
Br878      Br  0.12480239  0.57426989  0.80344306    -0.00500
Br879      Br  0.20244521  0.96345297  0.89278369    -0.00500
Br880      Br  0.16856914  0.51673980  0.94417355    -0.00500
C881        C  0.36108655  0.93576810  0.63685981    -0.01600
C882        C  0.34345758  0.92771752  0.60183601     0.08100
C883        C  0.30690164  0.92426400  0.60084688    -0.01700
C884        C  0.28884248  0.93061760  0.63426462    -0.01700
C885        C  0.30491526  0.93214143  0.67067599     0.08200
C886        C  0.34103543  0.93308008  0.67188750    -0.01900
Br887      Br  0.36377570  0.93426431  0.72083258    -0.00400
Br888      Br  0.41148574  0.95964964  0.63593052    -0.00500
Br889      Br  0.24616456  0.94526061  0.62743232    -0.00500
Br890      Br  0.28278236  0.91585590  0.55256029    -0.00500
C891        C  0.36602321  0.85448418  0.60493063    -0.01600
C892        C  0.35945513  0.86314792  0.56674245     0.08100
C893        C  0.32989015  0.84010012  0.54919094    -0.01700
C894        C  0.30676421  0.81031970  0.57097690    -0.01700
C895        C  0.31114294  0.80563230  0.61120098     0.08200
C896        C  0.33960183  0.83011264  0.62814594    -0.01900
Br897      Br  0.33678975  0.83931228  0.68208380    -0.00400
Br898      Br  0.41167288  0.87551970  0.62489573    -0.00500
Br899      Br  0.26646369  0.77947942  0.54736232    -0.00500
Br900      Br  0.32034019  0.85014980  0.49613258    -0.00500
C901        C  0.34873867  0.81259425  0.81851113    -0.01600
C902        C  0.38069933  0.83276634  0.79898463     0.08100
C903        C  0.38958779  0.82362940  0.76174228    -0.01700
C904        C  0.36779553  0.79333256  0.74499944    -0.01700
C905        C  0.33333149  0.77763282  0.76131232     0.08200
C906        C  0.32463494  0.78564704  0.79916536    -0.01900
Br907      Br  0.27968706  0.75940321  0.82425998    -0.00400
Br908      Br  0.33644079  0.82364798  0.87038115    -0.00500
Br909      Br  0.38365666  0.77603745  0.69791806    -0.00500
Br910      Br  0.42502430  0.85783287  0.72967981    -0.00500
C911        C  0.44943171  0.81130131  0.82872112    -0.01600
C912        C  0.45989204  0.84823800  0.81816131     0.08100
C913        C  0.48798871  0.86116880  0.78974439    -0.01700
C914        C  0.50102145  0.83669827  0.76820768    -0.01700
C915        C  0.48506120  0.79933675  0.77393798     0.08200
C916        C  0.46111282  0.78687617  0.80614564    -0.01900
Br917      Br  0.44457503  0.73627956  0.81967646    -0.00400
Br918      Br  0.41849902  0.79464219  0.87401739    -0.00500
Br919      Br  0.03913065  0.85445611  0.72943596    -0.00500
Br920      Br  0.00517287  0.91187276  0.77615887    -0.00500
N921        N  0.93654000  0.37004729  0.32867097    -0.03200
C922        C  0.94412722  0.40195594  0.34613774    -0.00600
C923        C  0.91636762  0.41737692  0.34334825    -0.23500
C924        C  0.89019552  0.39412716  0.32432865    -0.23700
C925        C  0.90285757  0.36523972  0.31628946    -0.00700
H926        H  0.91469471  0.44218710  0.35555207     0.13100
H927        H  0.86423156  0.39728758  0.31817999     0.13100
N928        N  0.87450909  0.40001409  0.05203022    -0.03200
C929        C  0.89260131  0.41243756  0.01779418    -0.00600
C930        C  0.89096772  0.44705384  0.00875477    -0.23500
C931        C  0.87300129  0.45705340  0.03899182    -0.23700
C932        C  0.86371733  0.42799736  0.06516656    -0.00700
H933        H  0.90439467  0.46452870  0.98447195     0.13100
H934        H  0.86795457  0.48288479  0.04202982     0.13100
N935        N  0.64322394  0.07227770  0.39152350    -0.03200
C936        C  0.61894680  0.06551781  0.42157250    -0.00600
C937        C  0.62431245  0.09509298  0.44398985    -0.23500
C938        C  0.65250051  0.12122794  0.42657903    -0.23700
C939        C  0.66295476  0.10699761  0.39348680    -0.00700
H940        H  0.60745527  0.09845050  0.46814590     0.13100
H941        H  0.66123822  0.14898067  0.43436695     0.13100
O942        O  0.77830657  0.27434876  0.23272342    -0.74200
O943        O  0.70031513  0.22980936  0.16973653    -0.74200
O944        O  0.71791837  0.22236422  0.24476603    -0.74200
O945        O  0.76253299  0.28475492  0.15785574    -0.74300
O946        O  0.79226036  0.24576807  0.14135080    -0.74200
O947        O  0.74463368  0.18153936  0.22776449    -0.74200
O948        O  0.72966629  0.19089922  0.15209909    -0.74200
O949        O  0.80630399  0.23378812  0.21658792    -0.74200
Ni950      Ni  0.73866425  0.25420476  0.20150524     1.25400
Ni951      Ni  0.76909399  0.21154676  0.18344375     1.25400
C952        C  0.80448717  0.26067806  0.23591408     0.88000
C953        C  0.70160582  0.20175643  0.15185614     0.88000
C954        C  0.72475562  0.19248842  0.25196519     0.88000
C955        C  0.78653851  0.27677607  0.13687489     0.88200
N956        N  0.56046881  0.07274544  0.08750444    -0.03200
C957        C  0.55339250  0.03767349  0.07796389    -0.00600
C958        C  0.58284357  0.02554438  0.08389330    -0.23500
C959        C  0.60877967  0.05309190  0.09769014    -0.23700
C960        C  0.59475382  0.08186261  0.09938727    -0.00700
H961        H  0.58588220  0.99980319  0.07662146     0.13100
H962        H  0.63560518  0.05273312  0.10407147     0.13100
N963        N  0.58122030  0.41478621  0.07606403    -0.03200
C964        C  0.58126005  0.43440271  0.04252721    -0.00600
C965        C  0.61506906  0.45727194  0.03423218    -0.23500
C966        C  0.63609660  0.45239062  0.06388748    -0.23700
C967        C  0.61479366  0.42634221  0.08916838    -0.00700
H968        H  0.62260664  0.47826618  0.01150148     0.13100
H969        H  0.66320154  0.46800887  0.06806744     0.13100
N970        N  0.93825576  0.04111704  0.37992952    -0.03200
C971        C  0.95096595  0.02738371  0.41151162    -0.00600
C972        C  0.96249446  0.05400372  0.43763243    -0.23500
C973        C  0.95833378  0.08520807  0.42100274    -0.23700
C974        C  0.94432154  0.07672136  0.38520189    -0.00700
H975        H  0.97788303  0.05235703  0.46289006     0.13100
H976        H  0.96960911  0.11191651  0.43106075     0.13100
O977        O  0.52176249  0.26791125  0.24091530    -0.74200
O978        O  0.53297874  0.19555524  0.17134947    -0.74200
O979        O  0.54230654  0.26823390  0.16513395    -0.74200
O980        O  0.51231223  0.19633535  0.24734293    -0.74300
O981        O  0.95644191  0.18413491  0.22955429    -0.74200
O982        O  0.98572773  0.25867560  0.14922396    -0.74200
O983        O  0.97688472  0.18600261  0.15368775    -0.74200
O984        O  0.96483730  0.25611979  0.22571778    -0.74200
Ni985      Ni  0.52936530  0.23225340  0.20655864     1.26200
Ni986      Ni  0.96900926  0.22097373  0.18878395     1.25400
C987        C  0.99106310  0.27337464  0.24533718     0.88000
C988        C  0.50672229  0.17838305  0.15173515     0.88000
C989        C  0.51861675  0.27660663  0.14496813     0.88000
C990        C  0.97964735  0.17811691  0.25222954     0.88200
O991        O  0.70624558  0.42258233  0.24523507    -0.74200
O992        O  0.79022619  0.45929862  0.30150726    -0.74200
O993        O  0.71983515  0.46061466  0.30947103    -0.74200
O994        O  0.77517364  0.42398081  0.23426445    -0.74300
O995        O  0.78576012  0.47645235  0.20057471    -0.74200
O996        O  0.73579912  0.01296882  0.27592527    -0.74200
O997        O  0.80418971  0.51110089  0.26654287    -0.74200
O998        O  0.71705048  0.47524743  0.21200590    -0.74200
Ni999      Ni  0.74766869  0.43982873  0.27422330     1.25400
Ni1000     Ni  0.76117050  0.49577468  0.23769183     1.25400
C1001       C  0.69793296  0.44258073  0.21913844     0.88000
C1002       C  0.81151003  0.49049209  0.29324740     0.88000
C1003       C  0.71727542  0.49277425  0.30320794     0.88000
C1004       C  0.78797275  0.44441842  0.20390667     0.88200
O1005       O  0.94774425  0.39910852  0.02320497    -0.80600
O1006       O  0.57066469  0.02802898  0.45836393    -0.65300
O1007       O  0.98246458  0.46424479  0.49230228    -1.11900
C1008       C  0.97360965  0.41748509  0.37087264     1.06300
O1009       O  0.57546060  0.01790800  0.39541328    -0.78500
O1010       O  0.00306765  0.51141161  0.39573737    -0.66100
Ni1011     Ni  0.97799891  0.44205542  0.04340287     1.34900
C1012       C  0.97075788  0.50039738  0.40878345     0.85000
O1013       O  0.52631848  0.02663696  0.01774355    -0.79100
O1014       O  0.50851452  0.98465066  0.06619292    -0.89300
C1015       C  0.58682118  0.03475162  0.42545147     0.84600
O1016       O  0.51833644  0.42337239  0.03682489    -0.67500
O1017       O  0.99275138  0.44881067  0.36099295    -0.86800
C1018       C  0.54949430  0.44234432  0.02633737     0.85400
C1019       C  0.52539541  0.01656749  0.05347260     1.07000
H1020       H  0.54131355  0.44717282  0.43931722     0.38800
O1021       O  0.52516158  0.46162266  0.43478053    -1.09500
O1022       O  0.95628423  0.46816143  0.42213047    -0.66100
Ni1023     Ni  0.97735127  0.43387491  0.44872382     1.26300
O1024       O  0.55502745  0.47115477  0.50520166    -0.66400
O1025       O  0.97328218  0.40418397  0.40497052    -0.78700
C1026       C  0.92260572  0.40114511  0.00152988     0.84800
O1027       O  0.92967509  0.40770007  0.46542332    -0.65800
Ni1028     Ni  0.53291328  0.48200122  0.38245354     1.27400
Ni1029     Ni  0.52674959  0.49531958  0.47578454     1.26100
H1030       H  0.96546994  0.47814669  0.49146397     0.39300
C1031       C  0.87411023  0.50887844  0.37771849    -0.01600
C1032       C  0.90793780  0.02217386  0.35842160     0.08100
C1033       C  0.90992509  0.02395010  0.31742761    -0.01700
C1034       C  0.87856833  0.01604594  0.29607660    -0.01700
C1035       C  0.84479390  0.50217363  0.31538651     0.08200
C1036       C  0.84307167  0.49760281  0.35639342    -0.01900
Br1037     Br  0.79779558  0.47879383  0.38434616    -0.00400
Br1038     Br  0.86931738  0.50961432  0.43356969    -0.00500
Br1039     Br  0.88241205  0.02541296  0.24052951    -0.00500
Br1040     Br  0.95585236  0.03651187  0.29060972    -0.00500
C1041       C  0.99544030  0.13582417  0.30128197    -0.01600
C1042       C  0.96916126  0.15032368  0.28496169     0.08100
C1043       C  0.93371109  0.13893504  0.30148301    -0.01700
C1044       C  0.92578238  0.11580449  0.33514833    -0.01700
C1045       C  0.95254968  0.10324835  0.35197588     0.08200
C1046       C  0.98730273  0.11326401  0.33503327    -0.01900
Br1047     Br  0.02378763  0.09417705  0.35683202    -0.00400
Br1048     Br  0.54214479  0.14296793  0.27624026    -0.00500
Br1049     Br  0.87830130  0.10149257  0.35892130    -0.00500
Br1050     Br  0.89484697  0.15346659  0.27892323    -0.00500
C1051       C  0.63928657  0.44299891  0.19300427    -0.01600
C1052       C  0.66724294  0.42716398  0.19505449     0.08100
C1053       C  0.66887031  0.40066619  0.16891649    -0.01700
C1054       C  0.65005395  0.39842271  0.13448525    -0.01700
C1055       C  0.62607696  0.41935247  0.12881526     0.08200
C1056       C  0.61910033  0.43980246  0.15966294    -0.01900
Br1057     Br  0.58605384  0.46795080  0.15516692    -0.00400
Br1058     Br  0.62682163  0.46585467  0.23761171    -0.00500
Br1059     Br  0.66168340  0.37078529  0.09365953    -0.00500
Br1060     Br  0.69784691  0.36861702  0.17947978    -0.00500
C1061       C  0.52896440  0.37260343  0.11112409    -0.01600
C1062       C  0.55854792  0.37904898  0.08499102     0.08100
C1063       C  0.56938934  0.34974167  0.07172902    -0.01700
C1064       C  0.55746250  0.31613199  0.09175627    -0.01700
C1065       C  0.52905765  0.30978790  0.11959925     0.08200
C1066       C  0.51305281  0.33750857  0.12660543    -0.01900
Br1067     Br  0.97121860  0.32828251  0.16003759    -0.00400
Br1068     Br  0.51017340  0.41121522  0.12594260    -0.00500
Br1069     Br  0.58227837  0.28066597  0.08283906    -0.00500
Br1070     Br  0.59928779  0.35571160  0.02509118    -0.00500
C1071       C  0.50093898  0.11266099  0.14582166    -0.01600
C1072       C  0.51067085  0.14782102  0.12867309     0.08100
C1073       C  0.52725192  0.15364680  0.09119943    -0.01700
C1074       C  0.54028016  0.12676676  0.07471408    -0.01700
C1075       C  0.53562627  0.09350927  0.09491091     0.08200
C1076       C  0.51271007  0.08529305  0.12850480    -0.01900
Br1077     Br  0.50131963  0.03796677  0.15363713    -0.00400
Br1078     Br  0.97356541  0.10262703  0.19438732    -0.00500
Br1079     Br  0.56523202  0.13506295  0.02485383    -0.00500
Br1080     Br  0.53082193  0.19759932  0.06200671    -0.00500
C1081       C  0.67330667  0.16545640  0.09664802    -0.01600
C1082       C  0.66968624  0.17903232  0.13340573     0.08100
C1083       C  0.63810665  0.16383154  0.15622441    -0.01700
C1084       C  0.61341467  0.13207585  0.14543451    -0.01700
C1085       C  0.61712388  0.11815483  0.10889738     0.08200
C1086       C  0.64697441  0.13562223  0.08420701    -0.01900
Br1087     Br  0.65448163  0.11613779  0.03509415    -0.00400
Br1088     Br  0.71508326  0.18700490  0.06368994    -0.00500
Br1089     Br  0.58005370  0.10390439  0.18456772    -0.00500
Br1090     Br  0.62944054  0.18435991  0.20400489    -0.00500
C1091       C  0.72746492  0.14759551  0.30733689    -0.01600
C1092       C  0.70989922  0.17121503  0.28921706     0.08100
C1093       C  0.67886189  0.17580400  0.30858560    -0.01700
C1094       C  0.66338034  0.15389710  0.34151869    -0.01700
C1095       C  0.68056519  0.13008306  0.35887559     0.08200
C1096       C  0.71328853  0.12804483  0.34250220    -0.01900
Br1097     Br  0.73942637  0.09959978  0.36937576    -0.00400
Br1098     Br  0.77269228  0.14361902  0.28686402    -0.00500
Br1099     Br  0.61653950  0.15475994  0.36081573    -0.00500
Br1100     Br  0.65690389  0.21294081  0.29316220    -0.00500
C1101       C  0.65412362  0.04843121  0.32891871    -0.01600
C1102       C  0.65350103  0.04570837  0.36947814     0.08100
C1103       C  0.66833724  0.02050964  0.38823222    -0.01700
C1104       C  0.68565002  0.99993422  0.36628902    -0.01700
C1105       C  0.69217141  0.00774165  0.32591979     0.08200
C1106       C  0.67586531  0.03231152  0.30725101    -0.01900
Br1107     Br  0.68430806  0.04744093  0.25268636    -0.00400
Br1108     Br  0.62480234  0.07426980  0.30344295    -0.00500
Br1109     Br  0.70244537  0.46345291  0.39278354    -0.00500
Br1110     Br  0.66856917  0.01673994  0.44417364    -0.00500
C1111       C  0.86108654  0.43576810  0.13685977    -0.01600
C1112       C  0.84345760  0.42771760  0.10183595     0.08100
C1113       C  0.80690165  0.42426394  0.10084685    -0.01700
C1114       C  0.78884253  0.43061762  0.13426456    -0.01700
C1115       C  0.80491523  0.43214138  0.17067595     0.08200
C1116       C  0.84103538  0.43307999  0.17188744    -0.01900
Br1117     Br  0.86377571  0.43426447  0.22083245    -0.00400
Br1118     Br  0.91148572  0.45964979  0.13593064    -0.00500
Br1119     Br  0.74616467  0.44526054  0.12743219    -0.00500
Br1120     Br  0.78278222  0.41585551  0.05256039    -0.00500
C1121       C  0.86602315  0.35448425  0.10493073    -0.01600
C1122       C  0.85945512  0.36314797  0.06674255     0.08100
C1123       C  0.82989022  0.34010012  0.04919101    -0.01700
C1124       C  0.80676432  0.31031965  0.07097690    -0.01700
C1125       C  0.81114295  0.30563237  0.11120101     0.08200
C1126       C  0.83960182  0.33011269  0.12814603    -0.01900
Br1127     Br  0.83678975  0.33931241  0.18208391    -0.00400
Br1128     Br  0.91167268  0.37551987  0.12489589    -0.00500
Br1129     Br  0.76646388  0.27947931  0.04736219    -0.00500
Br1130     Br  0.82034032  0.35014980  0.99613268    -0.00500
C1131       C  0.84873856  0.31259428  0.31851117    -0.01600
C1132       C  0.88069921  0.33276643  0.29898466     0.08100
C1133       C  0.88958773  0.32362951  0.26174232    -0.01700
C1134       C  0.86779547  0.29333270  0.24499943    -0.01700
C1135       C  0.83333142  0.27763294  0.26131228     0.08200
C1136       C  0.82463483  0.28564708  0.29916535    -0.01900
Br1137     Br  0.77968702  0.25940311  0.32426008    -0.00400
Br1138     Br  0.83644078  0.32364810  0.37038125    -0.00500
Br1139     Br  0.88365662  0.27603738  0.19791820    -0.00500
Br1140     Br  0.92502430  0.35783301  0.22967994    -0.00500
C1141       C  0.94943167  0.31130122  0.32872119    -0.01600
C1142       C  0.95989193  0.34823790  0.31816134     0.08100
C1143       C  0.98798863  0.36116873  0.28974448    -0.01700
C1144       C  0.00102138  0.33669823  0.26820774    -0.01700
C1145       C  0.98506115  0.29933671  0.27393801     0.08200
C1146       C  0.96111281  0.28687612  0.30614568    -0.01900
Br1147     Br  0.94457498  0.23627948  0.31967633    -0.00400
Br1148     Br  0.91849896  0.29464208  0.37401750    -0.00500
Br1149     Br  0.53913059  0.35445603  0.22943583    -0.00500
Br1150     Br  0.50517282  0.41187269  0.27615899    -0.00500
N1151       N  0.93654004  0.37004736  0.82867092    -0.03200
C1152       C  0.94412721  0.40195598  0.84613774    -0.00600
C1153       C  0.91636762  0.41737696  0.84334820    -0.23500
C1154       C  0.89019553  0.39412715  0.82432864    -0.23700
C1155       C  0.90285763  0.36523976  0.81628938    -0.00700
H1156       H  0.91469472  0.44218718  0.85555198     0.13100
H1157       H  0.86423157  0.39728749  0.81818002     0.13100
N1158       N  0.87450910  0.40001407  0.55203019    -0.03200
C1159       C  0.89260123  0.41243749  0.51779410    -0.00600
C1160       C  0.89096762  0.44705377  0.50875472    -0.23500
C1161       C  0.87300126  0.45705334  0.53899182    -0.23700
C1162       C  0.86371731  0.42799731  0.56516656    -0.00700
H1163       H  0.90439455  0.46452864  0.48447188     0.13100
H1164       H  0.86795454  0.48288473  0.54202986     0.13100
N1165       N  0.64322390  0.07227770  0.89152349    -0.03200
C1166       C  0.61894675  0.06551781  0.92157248    -0.00600
C1167       C  0.62431244  0.09509297  0.94398987    -0.23500
C1168       C  0.65250046  0.12122796  0.92657899    -0.23700
C1169       C  0.66295471  0.10699761  0.89348676    -0.00700
H1170       H  0.60745529  0.09845049  0.96814598     0.13100
H1171       H  0.66123820  0.14898069  0.93436688     0.13100
O1172       O  0.77830661  0.27434871  0.73272350    -0.74200
O1173       O  0.70031521  0.22980936  0.66973652    -0.74200
O1174       O  0.71791842  0.22236421  0.74476602    -0.74200
O1175       O  0.76253297  0.28475488  0.65785581    -0.74300
O1176       O  0.79226031  0.24576802  0.64135088    -0.74200
O1177       O  0.74463366  0.18153929  0.72776453    -0.74200
O1178       O  0.72966625  0.19089909  0.65209922    -0.74200
O1179       O  0.80630398  0.23378804  0.71658802    -0.74200
Ni1180     Ni  0.73866428  0.25420472  0.70150529     1.25400
Ni1181     Ni  0.76909396  0.21154668  0.68344384     1.25400
C1182       C  0.80448722  0.26067801  0.73591415     0.88000
C1183       C  0.70160583  0.20175640  0.65185618     0.88000
C1184       C  0.72475564  0.19248840  0.75196521     0.88000
C1185       C  0.78653847  0.27677603  0.63687494     0.88200
N1186       N  0.56046885  0.07274539  0.58750451    -0.03200
C1187       C  0.55339256  0.03767344  0.57796392    -0.00600
C1188       C  0.58284370  0.02554441  0.58389322    -0.23500
C1189       C  0.60877976  0.05309192  0.59769015    -0.23700
C1190       C  0.59475387  0.08186260  0.59938729    -0.00700
H1191       H  0.58588244  0.99980330  0.57662130     0.13100
H1192       H  0.63560529  0.05273316  0.60407152     0.13100
N1193       N  0.58122037  0.41478620  0.57606395    -0.03200
C1194       C  0.58126006  0.43440266  0.54252713    -0.00600
C1195       C  0.61506904  0.45727201  0.53423213    -0.23500
C1196       C  0.63609657  0.45239076  0.56388749    -0.23700
C1197       C  0.61479368  0.42634230  0.58916833    -0.00700
H1198       H  0.62260663  0.47826625  0.51150142     0.13100
H1199       H  0.66320150  0.46800903  0.56806749     0.13100
N1200       N  0.93825575  0.04111709  0.87992959    -0.03200
C1201       C  0.95096605  0.02738379  0.91151162    -0.00600
C1202       C  0.96249461  0.05400379  0.93763243    -0.23500
C1203       C  0.95833381  0.08520812  0.92100280    -0.23700
C1204       C  0.94432151  0.07672141  0.88520195    -0.00700
H1205       H  0.97788328  0.05235710  0.96289001     0.13100
H1206       H  0.96960915  0.11191658  0.93106080     0.13100
O1207       O  0.52176254  0.26791132  0.74091540    -0.74200
O1208       O  0.53297876  0.19555523  0.67134956    -0.74200
O1209       O  0.54230666  0.26823398  0.66513400    -0.74200
O1210       O  0.51231224  0.19633551  0.74734308    -0.74300
O1211       O  0.95644193  0.18413492  0.72955426    -0.74200
O1212       O  0.98572795  0.25867562  0.64922397    -0.74200
O1213       O  0.97688472  0.18600252  0.65368780    -0.74200
O1214       O  0.96483734  0.25611981  0.72571769    -0.74200
Ni1215     Ni  0.52936534  0.23225348  0.70655873     1.26200
Ni1216     Ni  0.96900936  0.22097373  0.68878392     1.25400
C1217       C  0.99106309  0.27337472  0.74533713     0.88000
C1218       C  0.50672232  0.17838300  0.65173524     0.88000
C1219       C  0.51861685  0.27660672  0.64496819     0.88000
C1220       C  0.97964737  0.17811699  0.75222954     0.88200
O1221       O  0.70624552  0.42258234  0.74523516    -0.74200
O1222       O  0.79022626  0.45929868  0.80150721    -0.74200
O1223       O  0.71983522  0.46061465  0.80947120    -0.74200
O1224       O  0.77517355  0.42398082  0.73426438    -0.74300
O1225       O  0.78576012  0.47645237  0.70057461    -0.74200
O1226       O  0.73579916  0.01296875  0.77592538    -0.74200
O1227       O  0.80418979  0.51110093  0.76654277    -0.74200
O1228       O  0.71705046  0.47524740  0.71200587    -0.74200
Ni1229     Ni  0.74766869  0.43982872  0.77422335     1.25400
Ni1230     Ni  0.76117050  0.49577467  0.73769178     1.25400
C1231       C  0.69793294  0.44258070  0.71913844     0.88000
C1232       C  0.81151008  0.49049218  0.79324737     0.88000
C1233       C  0.71727543  0.49277422  0.80320803     0.88000
C1234       C  0.78797270  0.44441842  0.70390660     0.88200
O1235       O  0.94774419  0.39910855  0.52320499    -0.80600
O1236       O  0.57066465  0.02802895  0.95836395    -0.65300
O1237       O  0.98246457  0.46424474  0.99230236    -1.11900
C1238       C  0.97360964  0.41748514  0.87087258     1.06300
O1239       O  0.57546057  0.01790796  0.89541329    -0.78500
O1240       O  0.00306758  0.51141163  0.89573722    -0.66100
Ni1241     Ni  0.97799889  0.44205548  0.54340281     1.34900
C1242       C  0.97075783  0.50039738  0.90878338     0.85000
O1243       O  0.52631847  0.02663696  0.51774358    -0.79100
O1244       O  0.50851446  0.98465069  0.56619303    -0.89300
C1245       C  0.58682114  0.03475159  0.92545148     0.84600
O1246       O  0.51833640  0.42337237  0.53682499    -0.67500
O1247       O  0.99275136  0.44881074  0.86099288    -0.86800
C1248       C  0.54949426  0.44234426  0.52633741     0.85400
C1249       C  0.52539542  0.01656748  0.55347265     1.07000
H1250       H  0.54131297  0.44717335  0.93931687     0.38800
O1251       O  0.52516150  0.46162278  0.93478040    -1.09500
O1252       O  0.95628421  0.46816148  0.92213056    -0.66100
Ni1253     Ni  0.97735123  0.43387490  0.94872379     1.26300
O1254       O  0.55502750  0.47115481  0.00520158    -0.66400
O1255       O  0.97328217  0.40418400  0.90497044    -0.78700
C1256       C  0.92260569  0.40114509  0.50152984     0.84800
O1257       O  0.92967505  0.40770001  0.96542334    -0.65800
Ni1258     Ni  0.53291330  0.48200132  0.88245345     1.27400
Ni1259     Ni  0.52674959  0.49531960  0.97578452     1.26100
H1260       H  0.96546992  0.47814658  0.99146416     0.39300
C1261       C  0.87411023  0.50887844  0.87771856    -0.01600
C1262       C  0.90793780  0.02217385  0.85842171     0.08100
C1263       C  0.90992507  0.02395008  0.81742773    -0.01700
C1264       C  0.87856833  0.01604605  0.79607672    -0.01700
C1265       C  0.84479392  0.50217375  0.81538656     0.08200
C1266       C  0.84307167  0.49760282  0.85639347    -0.01900
Br1267     Br  0.79779559  0.47879400  0.88434627    -0.00400
Br1268     Br  0.86931734  0.50961425  0.93356979    -0.00500
Br1269     Br  0.88241222  0.02541288  0.74052962    -0.00500
Br1270     Br  0.95585233  0.03651179  0.79060985    -0.00500
C1271       C  0.99544033  0.13582418  0.80128194    -0.01600
C1272       C  0.96916131  0.15032375  0.78496169     0.08100
C1273       C  0.93371112  0.13893511  0.80148298    -0.01700
C1274       C  0.92578239  0.11580457  0.83514833    -0.01700
C1275       C  0.95254968  0.10324838  0.85197588     0.08200
C1276       C  0.98730272  0.11326398  0.83503323    -0.01900
Br1277     Br  0.02378766  0.09417722  0.85683216    -0.00400
Br1278     Br  0.54214475  0.14296786  0.77624038    -0.00500
Br1279     Br  0.87830133  0.10149276  0.85892142    -0.00500
Br1280     Br  0.89484702  0.15346676  0.77892313    -0.00500
C1281       C  0.63928655  0.44299884  0.69300424    -0.01600
C1282       C  0.66724293  0.42716393  0.69505445     0.08100
C1283       C  0.66887032  0.40066618  0.66891639    -0.01700
C1284       C  0.65005401  0.39842279  0.63448511    -0.01700
C1285       C  0.62607701  0.41935253  0.62881517     0.08200
C1286       C  0.61910030  0.43980241  0.65966291    -0.01900
Br1287     Br  0.58605381  0.46795075  0.65516681    -0.00400
Br1288     Br  0.62682159  0.46585462  0.73761160    -0.00500
Br1289     Br  0.66168335  0.37078524  0.59365940    -0.00500
Br1290     Br  0.69784686  0.36861696  0.67947963    -0.00500
C1291       C  0.52896452  0.37260344  0.61112408    -0.01600
C1292       C  0.55854805  0.37904899  0.58499102     0.08100
C1293       C  0.56938948  0.34974169  0.57172902    -0.01700
C1294       C  0.55746266  0.31613206  0.59175636    -0.01700
C1295       C  0.52905775  0.30978795  0.61959927     0.08200
C1296       C  0.51305285  0.33750860  0.62660535    -0.01900
Br1297     Br  0.97121865  0.32828265  0.66003770    -0.00400
Br1298     Br  0.51017357  0.41121518  0.62594274    -0.00500
Br1299     Br  0.58227863  0.28066613  0.58283922    -0.00500
Br1300     Br  0.59928795  0.35571153  0.52509108    -0.00500
C1301       C  0.50093901  0.11266093  0.64582165    -0.01600
C1302       C  0.51067090  0.14782098  0.62867313     0.08100
C1303       C  0.52725207  0.15364684  0.59119951    -0.01700
C1304       C  0.54028029  0.12676676  0.57471413    -0.01700
C1305       C  0.53562629  0.09350920  0.59491090     0.08200
C1306       C  0.51271009  0.08529298  0.62850481    -0.01900
Br1307     Br  0.50131959  0.03796670  0.65363724    -0.00400
Br1308     Br  0.97356534  0.10262695  0.69438720    -0.00500
Br1309     Br  0.56523196  0.13506288  0.52485372    -0.00500
Br1310     Br  0.53082196  0.19759943  0.56200688    -0.00500
C1311       C  0.67330671  0.16545642  0.59664804    -0.01600
C1312       C  0.66968624  0.17903237  0.63340572     0.08100
C1313       C  0.63810667  0.16383152  0.65622440    -0.01700
C1314       C  0.61341468  0.13207583  0.64543454    -0.01700
C1315       C  0.61712393  0.11815481  0.60889740     0.08200
C1316       C  0.64697450  0.13562221  0.58420702    -0.01900
Br1317     Br  0.65448181  0.11613775  0.53509409    -0.00400
Br1318     Br  0.71508327  0.18700507  0.56369005    -0.00500
Br1319     Br  0.58005368  0.10390435  0.68456781    -0.00500
Br1320     Br  0.62944050  0.18435987  0.70400480    -0.00500
C1321       C  0.72746494  0.14759550  0.80733687    -0.01600
C1322       C  0.70989930  0.17121508  0.78921710     0.08100
C1323       C  0.67886206  0.17580412  0.80858568    -0.01700
C1324       C  0.66338046  0.15389715  0.84151867    -0.01700
C1325       C  0.68056519  0.13008300  0.85887552     0.08200
C1326       C  0.71328854  0.12804472  0.84250215    -0.01900
Br1327     Br  0.73942651  0.09959975  0.86937585    -0.00400
Br1328     Br  0.77269232  0.14361919  0.78686391    -0.00500
Br1329     Br  0.61653970  0.15476012  0.86081562    -0.00500
Br1330     Br  0.65690405  0.21294079  0.79316206    -0.00500
C1331       C  0.65412356  0.04843118  0.82891869    -0.01600
C1332       C  0.65350100  0.04570840  0.86947812     0.08100
C1333       C  0.66833719  0.02050967  0.88823219    -0.01700
C1334       C  0.68565003  0.99993429  0.86628904    -0.01700
C1335       C  0.69217139  0.00774163  0.82591982     0.08200
C1336       C  0.67586524  0.03231146  0.80725101    -0.01900
Br1337     Br  0.68430810  0.04744108  0.75268648    -0.00400
Br1338     Br  0.62480228  0.07426974  0.80344282    -0.00500
Br1339     Br  0.70244529  0.46345288  0.89278367    -0.00500
Br1340     Br  0.66856910  0.01673989  0.94417355    -0.00500
C1341       C  0.86108655  0.43576804  0.63685980    -0.01600
C1342       C  0.84345759  0.42771757  0.60183597     0.08100
C1343       C  0.80690165  0.42426407  0.60084681    -0.01700
C1344       C  0.78884250  0.43061763  0.63426454    -0.01700
C1345       C  0.80491519  0.43214133  0.67067594     0.08200
C1346       C  0.84103536  0.43307992  0.67188748    -0.01900
Br1347     Br  0.86377564  0.43426438  0.72083257    -0.00400
Br1348     Br  0.91148584  0.45964968  0.63593053    -0.00500
Br1349     Br  0.74616469  0.44526070  0.62743230    -0.00500
Br1350     Br  0.78278225  0.41585573  0.55256028    -0.00500
C1351       C  0.86602323  0.35448418  0.60493061    -0.01600
C1352       C  0.85945511  0.36314797  0.56674248     0.08100
C1353       C  0.82989013  0.34010020  0.54919096    -0.01700
C1354       C  0.80676426  0.31031974  0.57097691    -0.01700
C1355       C  0.81114292  0.30563239  0.61120101     0.08200
C1356       C  0.83960183  0.33011272  0.62814594    -0.01900
Br1357     Br  0.83678994  0.33931235  0.68208381    -0.00400
Br1358     Br  0.91167285  0.37551979  0.62489573    -0.00500
Br1359     Br  0.76646385  0.27947946  0.54736230    -0.00500
Br1360     Br  0.82034014  0.35014988  0.49613259    -0.00500
C1361       C  0.84873862  0.31259434  0.81851112    -0.01600
C1362       C  0.88069931  0.33276642  0.79898462     0.08100
C1363       C  0.88958785  0.32362941  0.76174231    -0.01700
C1364       C  0.86779558  0.29333256  0.74499947    -0.01700
C1365       C  0.83333150  0.27763289  0.76131232     0.08200
C1366       C  0.82463490  0.28564710  0.79916534    -0.01900
Br1367     Br  0.77968699  0.25940307  0.82425996    -0.00400
Br1368     Br  0.83644074  0.32364806  0.87038114    -0.00500
Br1369     Br  0.88365657  0.27603731  0.69791808    -0.00500
Br1370     Br  0.92502426  0.35783295  0.72967981    -0.00500
C1371       C  0.94943160  0.31130122  0.82872111    -0.01600
C1372       C  0.95989196  0.34823796  0.81816135     0.08100
C1373       C  0.98798871  0.36116882  0.78974452    -0.01700
C1374       C  0.00102143  0.33669830  0.76820780    -0.01700
C1375       C  0.98506111  0.29933676  0.77393797     0.08200
C1376       C  0.96111276  0.28687612  0.80614563    -0.01900
Br1377     Br  0.94457518  0.23627943  0.81967646    -0.00400
Br1378     Br  0.91849890  0.29464201  0.87401738    -0.00500
Br1379     Br  0.53913061  0.35445620  0.72943595    -0.00500
Br1380     Br  0.50517282  0.41187282  0.77615887    -0.00500
N1381       N  0.93654001  0.87004732  0.32867090    -0.03200
C1382       C  0.94412714  0.90195593  0.34613773    -0.00600
C1383       C  0.91636748  0.91737683  0.34334828    -0.23500
C1384       C  0.89019545  0.89412707  0.32432859    -0.23700
C1385       C  0.90285760  0.86523972  0.31628934    -0.00700
H1386       H  0.91469446  0.94218697  0.35555213     0.13100
H1387       H  0.86423145  0.89728738  0.31817995     0.13100
N1388       N  0.87450914  0.90001407  0.05203031    -0.03200
C1389       C  0.89260128  0.91243751  0.01779422    -0.00600
C1390       C  0.89096765  0.94705376  0.00875480    -0.23500
C1391       C  0.87300124  0.95705333  0.03899183    -0.23700
C1392       C  0.86371732  0.92799732  0.06516663    -0.00700
H1393       H  0.90439458  0.96452860  0.98447194     0.13100
H1394       H  0.86795447  0.98288470  0.04202977     0.13100
N1395       N  0.64322397  0.57227751  0.39152347    -0.03200
C1396       C  0.61894683  0.56551769  0.42157248    -0.00600
C1397       C  0.62431257  0.59509286  0.44398986    -0.23500
C1398       C  0.65250060  0.62122781  0.42657897    -0.23700
C1399       C  0.66295482  0.60699742  0.39348673    -0.00700
H1400       H  0.60745545  0.59845041  0.46814595     0.13100
H1401       H  0.66123831  0.64898056  0.43436685     0.13100
O1402       O  0.77830652  0.77434867  0.23272346    -0.74200
O1403       O  0.70031509  0.72980933  0.16973655    -0.74200
O1404       O  0.71791834  0.72236417  0.24476603    -0.74200
O1405       O  0.76253293  0.78475485  0.15785586    -0.74300
O1406       O  0.79226027  0.74576802  0.14135078    -0.74200
O1407       O  0.74463366  0.68153932  0.22776449    -0.74200
O1408       O  0.72966619  0.69089914  0.15209912    -0.74200
O1409       O  0.80630395  0.73378807  0.21658793    -0.74200
Ni1410     Ni  0.73866421  0.75420468  0.20150529     1.25400
Ni1411     Ni  0.76909394  0.71154669  0.18344374     1.25400
C1412       C  0.80448712  0.76067798  0.23591412     0.88000
C1413       C  0.70160574  0.70175640  0.15185614     0.88000
C1414       C  0.72475562  0.69248839  0.25196520     0.88000
C1415       C  0.78653839  0.77677602  0.13687491     0.88200
N1416       N  0.56046883  0.57274539  0.08750446    -0.03200
C1417       C  0.55339257  0.53767344  0.07796387    -0.00600
C1418       C  0.58284366  0.52554437  0.08389334    -0.23500
C1419       C  0.60877967  0.55309186  0.09769036    -0.23700
C1420       C  0.59475381  0.58186256  0.09938738    -0.00700
H1421       H  0.58588239  0.49980322  0.07662156     0.13100
H1422       H  0.63560516  0.55273309  0.10407192     0.13100
N1423       N  0.58122034  0.91478629  0.07606396    -0.03200
C1424       C  0.58126009  0.93440272  0.04252710    -0.00600
C1425       C  0.61506908  0.95727205  0.03423214    -0.23500
C1426       C  0.63609661  0.95239079  0.06388748    -0.23700
C1427       C  0.61479368  0.92634237  0.08916836    -0.00700
H1428       H  0.62260663  0.97826632  0.01150148     0.13100
H1429       H  0.66320153  0.96800908  0.06806746     0.13100
N1430       N  0.93825570  0.54111701  0.37992950    -0.03200
C1431       C  0.95096596  0.52738373  0.41151160    -0.00600
C1432       C  0.96249442  0.55400378  0.43763240    -0.23500
C1433       C  0.95833357  0.58520807  0.42100274    -0.23700
C1434       C  0.94432135  0.57672131  0.38520190    -0.00700
H1435       H  0.97788303  0.55235715  0.46289002     0.13100
H1436       H  0.96960884  0.61191657  0.43106069     0.13100
O1437       O  0.52176255  0.76791142  0.24091521    -0.74200
O1438       O  0.53297881  0.69555524  0.17134944    -0.74200
O1439       O  0.54230670  0.76823399  0.16513383    -0.74200
O1440       O  0.51231230  0.69633553  0.24734294    -0.74300
O1441       O  0.95644193  0.68413486  0.22955428    -0.74200
O1442       O  0.98572774  0.75867559  0.14922395    -0.74200
O1443       O  0.97688464  0.68600253  0.15368773    -0.74200
O1444       O  0.96483729  0.75611975  0.22571779    -0.74200
Ni1445     Ni  0.52936539  0.73225351  0.20655858     1.26200
Ni1446     Ni  0.96900925  0.72097369  0.18878394     1.25400
C1447       C  0.99106309  0.77337465  0.24533717     0.88000
C1448       C  0.50672235  0.67838303  0.15173512     0.88000
C1449       C  0.51861686  0.77660673  0.14496809     0.88000
C1450       C  0.97964737  0.67811695  0.25222958     0.88200
O1451       O  0.70624565  0.92258256  0.24523504    -0.74200
O1452       O  0.79022624  0.95929883  0.30150725    -0.74200
O1453       O  0.71983518  0.96061485  0.30947105    -0.74200
O1454       O  0.77517368  0.92398099  0.23426447    -0.74300
O1455       O  0.78576019  0.97645251  0.20057468    -0.74200
O1456       O  0.73579907  0.51296864  0.27592526    -0.74200
O1457       O  0.80418985  0.01110110  0.26654286    -0.74200
O1458       O  0.71705054  0.97524769  0.21200592    -0.74200
Ni1459     Ni  0.74766873  0.93982894  0.27422330     1.25400
Ni1460     Ni  0.76117058  0.99577489  0.23769183     1.25400
C1461       C  0.69793303  0.94258098  0.21913842     0.88000
C1462       C  0.81151012  0.99049228  0.29324740     0.88000
C1463       C  0.71727546  0.99277445  0.30320796     0.88000
C1464       C  0.78797279  0.94441855  0.20390667     0.88200
O1465       O  0.94774422  0.89910857  0.02320500    -0.80600
O1466       O  0.57066468  0.52802889  0.45836393    -0.65300
O1467       O  0.98246459  0.96424476  0.49230235    -1.11900
C1468       C  0.97360956  0.91748504  0.37087265     1.06300
O1469       O  0.57546057  0.51790790  0.39541328    -0.78500
O1470       O  0.00306765  0.01141161  0.39573735    -0.66100
Ni1471     Ni  0.97799883  0.94205549  0.04340285     1.34900
C1472       C  0.97075788  0.00039738  0.40878344     0.85000
O1473       O  0.52631848  0.52663692  0.01774356    -0.79100
O1474       O  0.50851452  0.48465062  0.06619299    -0.89300
C1475       C  0.58682116  0.53475153  0.42545146     0.84600
O1476       O  0.51833645  0.92337246  0.03682488    -0.67500
O1477       O  0.99275137  0.94881059  0.36099296    -0.86800
C1478       C  0.54949431  0.94234432  0.02633731     0.85400
C1479       C  0.52539544  0.51656744  0.05347262     1.07000
H1480       H  0.54131310  0.94717329  0.43931706     0.38800
O1481       O  0.52516154  0.96162277  0.43478050    -1.09500
O1482       O  0.95628424  0.96816144  0.42213051    -0.66100
Ni1483     Ni  0.97735122  0.93387487  0.44872386     1.26300
O1484       O  0.55502749  0.97115486  0.50520166    -0.66400
O1485       O  0.97328200  0.90418392  0.40497054    -0.78700
C1486       C  0.92260570  0.90114511  0.00152990     0.84800
O1487       O  0.92967504  0.90770003  0.46542340    -0.65800
Ni1488     Ni  0.53291329  0.98200134  0.38245353     1.27400
Ni1489     Ni  0.52674958  0.99531965  0.47578454     1.26100
H1490       H  0.96546993  0.97814662  0.49146403     0.39300
C1491       C  0.87411027  0.00887851  0.37771852    -0.01600
C1492       C  0.90793777  0.52217378  0.35842157     0.08100
C1493       C  0.90992506  0.52395007  0.31742757    -0.01700
C1494       C  0.87856828  0.51604588  0.29607656    -0.01700
C1495       C  0.84479397  0.00217372  0.31538654     0.08200
C1496       C  0.84307172  0.99760283  0.35639344    -0.01900
Br1497     Br  0.79779562  0.97879400  0.38434616    -0.00400
Br1498     Br  0.86931740  0.00961441  0.43356970    -0.00500
Br1499     Br  0.88241207  0.52541312  0.24052950    -0.00500
Br1500     Br  0.95585238  0.53651204  0.29060971    -0.00500
C1501       C  0.99544027  0.63582414  0.30128206    -0.01600
C1502       C  0.96916126  0.65032367  0.28496172     0.08100
C1503       C  0.93371105  0.63893500  0.30148298    -0.01700
C1504       C  0.92578228  0.61580442  0.33514828    -0.01700
C1505       C  0.95254955  0.60324828  0.35197589     0.08200
C1506       C  0.98730264  0.61326395  0.33503335    -0.01900
Br1507     Br  0.02378763  0.59417722  0.35683231    -0.00400
Br1508     Br  0.54214480  0.64296787  0.27624021    -0.00500
Br1509     Br  0.87830123  0.60149249  0.35892129    -0.00500
Br1510     Br  0.89484701  0.65346676  0.27892324    -0.00500
C1511       C  0.63928659  0.94299914  0.19300421    -0.01600
C1512       C  0.66724297  0.92716422  0.19505446     0.08100
C1513       C  0.66887033  0.90066641  0.16891647    -0.01700
C1514       C  0.65005398  0.89842289  0.13448522    -0.01700
C1515       C  0.62607699  0.91935264  0.12881522     0.08200
C1516       C  0.61910033  0.93980266  0.15966287    -0.01900
Br1517     Br  0.58605371  0.96795096  0.15516668    -0.00400
Br1518     Br  0.62682176  0.96585514  0.23761144    -0.00500
Br1519     Br  0.66168337  0.87078524  0.09365957    -0.00500
Br1520     Br  0.69784675  0.86861717  0.17947981    -0.00500
C1521       C  0.52896439  0.87260350  0.11112399    -0.01600
C1522       C  0.55854795  0.87904907  0.08499095     0.08100
C1523       C  0.56938932  0.84974175  0.07172890    -0.01700
C1524       C  0.55746250  0.81613210  0.09175618    -0.01700
C1525       C  0.52905770  0.80978801  0.11959923     0.08200
C1526       C  0.51305284  0.83750867  0.12660541    -0.01900
Br1527     Br  0.97121865  0.82828266  0.16003759    -0.00400
Br1528     Br  0.51017336  0.91121519  0.12594260    -0.00500
Br1529     Br  0.58227841  0.78066613  0.08283880    -0.00500
Br1530     Br  0.59928800  0.85571155  0.02509119    -0.00500
C1531       C  0.50093897  0.61266095  0.14582164    -0.01600
C1532       C  0.51067089  0.64782097  0.12867306     0.08100
C1533       C  0.52725203  0.65364676  0.09119944    -0.01700
C1534       C  0.54028017  0.62676666  0.07471408    -0.01700
C1535       C  0.53562625  0.59350917  0.09491090     0.08200
C1536       C  0.51271005  0.58529298  0.12850480    -0.01900
Br1537     Br  0.50131960  0.53796669  0.15363714    -0.00400
Br1538     Br  0.97356545  0.60262717  0.19438732    -0.00500
Br1539     Br  0.56523201  0.63506286  0.02485382    -0.00500
Br1540     Br  0.53082192  0.69759924  0.06200671    -0.00500
C1541       C  0.67330662  0.66545637  0.09664805    -0.01600
C1542       C  0.66968615  0.67903236  0.13340572     0.08100
C1543       C  0.63810656  0.66383156  0.15622440    -0.01700
C1544       C  0.61341466  0.63207582  0.14543456    -0.01700
C1545       C  0.61712389  0.61815477  0.10889746     0.08200
C1546       C  0.64697440  0.63562216  0.08420707    -0.01900
Br1547     Br  0.65448160  0.61613771  0.03509418    -0.00400
Br1548     Br  0.71508307  0.68700507  0.06368991    -0.00500
Br1549     Br  0.58005368  0.60390432  0.18456773    -0.00500
Br1550     Br  0.62944030  0.68435985  0.20400488    -0.00500
C1551       C  0.72746494  0.64759543  0.30733679    -0.01600
C1552       C  0.70989923  0.67121499  0.28921704     0.08100
C1553       C  0.67886190  0.67580392  0.30858559    -0.01700
C1554       C  0.66338040  0.65389696  0.34151864    -0.01700
C1555       C  0.68056519  0.63008282  0.35887544     0.08200
C1556       C  0.71328856  0.62804464  0.34250206    -0.01900
Br1557     Br  0.73942656  0.59959973  0.36937572    -0.00400
Br1558     Br  0.77269226  0.64361894  0.28686376    -0.00500
Br1559     Br  0.61653966  0.65475985  0.36081576    -0.00500
Br1560     Br  0.65690386  0.71294073  0.29316220    -0.00500
C1561       C  0.65412352  0.54843095  0.32891864    -0.01600
C1562       C  0.65350097  0.54570815  0.36947807     0.08100
C1563       C  0.66833715  0.52050938  0.38823209    -0.01700
C1564       C  0.68564996  0.49993398  0.36628893    -0.01700
C1565       C  0.69217132  0.50774138  0.32591972     0.08200
C1566       C  0.67586515  0.53231119  0.30725094    -0.01900
Br1567     Br  0.68430795  0.54744059  0.25268634    -0.00400
Br1568     Br  0.62480233  0.57426970  0.30344294    -0.00500
Br1569     Br  0.70244541  0.96345311  0.39278356    -0.00500
Br1570     Br  0.66856907  0.51673960  0.44417342    -0.00500
C1571       C  0.86108652  0.93576800  0.13685986    -0.01600
C1572       C  0.84345759  0.92771756  0.10183602     0.08100
C1573       C  0.80690167  0.92426406  0.10084689    -0.01700
C1574       C  0.78884252  0.93061763  0.13426460    -0.01700
C1575       C  0.80491522  0.93214139  0.17067600     0.08200
C1576       C  0.84103536  0.93307992  0.17188755    -0.01900
Br1577     Br  0.86377565  0.93426437  0.22083267    -0.00400
Br1578     Br  0.91148570  0.95964970  0.13593066    -0.00500
Br1579     Br  0.74616472  0.94526071  0.12743220    -0.00500
Br1580     Br  0.78278233  0.91585596  0.05256037    -0.00500
C1581       C  0.86602307  0.85448418  0.10493074    -0.01600
C1582       C  0.85945507  0.86314796  0.06674258     0.08100
C1583       C  0.82989011  0.84010017  0.04919101    -0.01700
C1584       C  0.80676419  0.81031969  0.07097689    -0.01700
C1585       C  0.81114277  0.80563240  0.11120102     0.08200
C1586       C  0.83960162  0.83011275  0.12814603    -0.01900
Br1587     Br  0.83678971  0.83931233  0.18208393    -0.00400
Br1588     Br  0.91167264  0.87551978  0.12489590    -0.00500
Br1589     Br  0.76646386  0.77947924  0.04736217    -0.00500
Br1590     Br  0.82034013  0.85014998  0.99613272    -0.00500
C1591       C  0.84873857  0.81259432  0.31851117    -0.01600
C1592       C  0.88069927  0.83276637  0.29898467     0.08100
C1593       C  0.88958774  0.82362943  0.26174234    -0.01700
C1594       C  0.86779544  0.79333265  0.24499947    -0.01700
C1595       C  0.83333138  0.77763291  0.26131232     0.08200
C1596       C  0.82463481  0.78564712  0.29916537    -0.01900
Br1597     Br  0.77968701  0.75940305  0.32426010    -0.00400
Br1598     Br  0.83644077  0.82364804  0.37038126    -0.00500
Br1599     Br  0.88365665  0.77603752  0.19791818    -0.00500
Br1600     Br  0.92502429  0.85783294  0.22967993    -0.00500
C1601       C  0.94943164  0.81130123  0.32872117    -0.01600
C1602       C  0.95989195  0.84823794  0.31816134     0.08100
C1603       C  0.98798867  0.86116879  0.28974446    -0.01700
C1604       C  0.00102144  0.83669829  0.26820772    -0.01700
C1605       C  0.98506113  0.79933674  0.27393798     0.08200
C1606       C  0.96111271  0.78687612  0.30614561    -0.01900
Br1607     Br  0.94457496  0.73627943  0.31967632    -0.00400
Br1608     Br  0.91849894  0.79464201  0.37401750    -0.00500
Br1609     Br  0.53913063  0.85445620  0.22943583    -0.00500
Br1610     Br  0.50517286  0.91187283  0.27615900    -0.00500
N1611       N  0.93654004  0.87004739  0.82867087    -0.03200
C1612       C  0.94412721  0.90195607  0.84613756    -0.00600
C1613       C  0.91636756  0.91737695  0.84334812    -0.23500
C1614       C  0.89019543  0.89412705  0.82432866    -0.23700
C1615       C  0.90285759  0.86523971  0.81628939    -0.00700
H1616       H  0.91469463  0.94218716  0.85555189     0.13100
H1617       H  0.86423143  0.89728736  0.81818007     0.13100
N1618       N  0.87450912  0.90001415  0.55203034    -0.03200
C1619       C  0.89260131  0.91243763  0.51779427    -0.00600
C1620       C  0.89096775  0.94705393  0.50875490    -0.23500
C1621       C  0.87300142  0.95705351  0.53899200    -0.23700
C1622       C  0.86371738  0.92799742  0.56516671    -0.00700
H1623       H  0.90439461  0.96452876  0.48447203     0.13100
H1624       H  0.86795470  0.98288491  0.54202998     0.13100
N1625       N  0.64322395  0.57227756  0.89152349    -0.03200
C1626       C  0.61894683  0.56551769  0.92157251    -0.00600
C1627       C  0.62431256  0.59509282  0.94398994    -0.23500
C1628       C  0.65250059  0.62122779  0.92657907    -0.23700
C1629       C  0.66295484  0.60699746  0.89348681    -0.00700
H1630       H  0.60745543  0.59845034  0.96814604     0.13100
H1631       H  0.66123828  0.64898052  0.93436701     0.13100
O1632       O  0.77830662  0.77434869  0.73272347    -0.74200
O1633       O  0.70031515  0.72980941  0.66973651    -0.74200
O1634       O  0.71791840  0.72236413  0.74476602    -0.74200
O1635       O  0.76253294  0.78475485  0.65785583    -0.74300
O1636       O  0.79226029  0.74576800  0.64135085    -0.74200
O1637       O  0.74463365  0.68153923  0.72776452    -0.74200
O1638       O  0.72966616  0.69089910  0.65209925    -0.74200
O1639       O  0.80630397  0.73378803  0.71658792    -0.74200
Ni1640     Ni  0.73866426  0.75420470  0.70150529     1.25400
Ni1641     Ni  0.76909393  0.71154665  0.68344380     1.25400
C1642       C  0.80448721  0.76067797  0.73591410     0.88000
C1643       C  0.70160576  0.70175643  0.65185617     0.88000
C1644       C  0.72475562  0.69248832  0.75196520     0.88000
C1645       C  0.78653844  0.77677602  0.63687495     0.88200
N1646       N  0.56046884  0.57274538  0.58750454    -0.03200
C1647       C  0.55339257  0.53767346  0.57796393    -0.00600
C1648       C  0.58284372  0.52554443  0.58389326    -0.23500
C1649       C  0.60877976  0.55309195  0.59769021    -0.23700
C1650       C  0.59475384  0.58186259  0.59938737    -0.00700
H1651       H  0.58588245  0.49980329  0.57662140     0.13100
H1652       H  0.63560530  0.55273326  0.60407163     0.13100
N1653       N  0.58122035  0.91478626  0.57606398    -0.03200
C1654       C  0.58126007  0.93440266  0.54252709    -0.00600
C1655       C  0.61506905  0.95727197  0.53423209    -0.23500
C1656       C  0.63609658  0.95239076  0.56388747    -0.23700
C1657       C  0.61479366  0.92634236  0.58916836    -0.00700
H1658       H  0.62260661  0.97826622  0.51150140     0.13100
H1659       H  0.66320150  0.96800904  0.56806748     0.13100
N1660       N  0.93825571  0.54111705  0.87992952    -0.03200
C1661       C  0.95096592  0.52738371  0.91151159    -0.00600
C1662       C  0.96249438  0.55400366  0.93763248    -0.23500
C1663       C  0.95833371  0.58520803  0.92100281    -0.23700
C1664       C  0.94432146  0.57672135  0.88520193    -0.00700
H1665       H  0.97788290  0.55235692  0.96289014     0.13100
H1666       H  0.96960904  0.61191648  0.93106086     0.13100
O1667       O  0.52176261  0.76791131  0.74091534    -0.74200
O1668       O  0.53297879  0.69555517  0.67134956    -0.74200
O1669       O  0.54230665  0.76823393  0.66513396    -0.74200
O1670       O  0.51231234  0.69633544  0.74734293    -0.74300
O1671       O  0.95644190  0.68413491  0.72955444    -0.74200
O1672       O  0.98572775  0.75867556  0.64922409    -0.74200
O1673       O  0.97688463  0.68600247  0.65368790    -0.74200
O1674       O  0.96483725  0.75611969  0.72571793    -0.74200
Ni1675     Ni  0.52936538  0.73225344  0.70655867     1.26200
Ni1676     Ni  0.96900923  0.72097366  0.68878408     1.25400
C1677       C  0.99106306  0.77337463  0.74533727     0.88000
C1678       C  0.50672235  0.67838300  0.65173520     0.88000
C1679       C  0.51861685  0.77660667  0.64496815     0.88000
C1680       C  0.97964735  0.67811699  0.75222971     0.88200
O1681       O  0.70624557  0.92258247  0.74523516    -0.74200
O1682       O  0.79022627  0.95929885  0.80150725    -0.74200
O1683       O  0.71983514  0.96061477  0.80947117    -0.74200
O1684       O  0.77517361  0.92398100  0.73426444    -0.74300
O1685       O  0.78576014  0.97645254  0.70057464    -0.74200
O1686       O  0.73579903  0.51296856  0.77592528    -0.74200
O1687       O  0.80418987  0.01110107  0.76654276    -0.74200
O1688       O  0.71705047  0.97524760  0.71200600    -0.74200
Ni1689     Ni  0.74766870  0.93982888  0.77422337     1.25400
Ni1690     Ni  0.76117056  0.99577484  0.73769183     1.25400
C1691       C  0.69793298  0.94258088  0.71913850     0.88000
C1692       C  0.81151012  0.99049232  0.79324739     0.88000
C1693       C  0.71727546  0.99277438  0.80320805     0.88000
C1694       C  0.78797277  0.94441861  0.70390666     0.88200
O1695       O  0.94774421  0.89910853  0.52320502    -0.80600
O1696       O  0.57066465  0.52802893  0.95836394    -0.65300
O1697       O  0.98246456  0.96424472  0.99230228    -1.11900
C1698       C  0.97360957  0.91748520  0.87087252     1.06300
O1699       O  0.57546058  0.51790792  0.89541330    -0.78500
O1700       O  0.00306766  0.01141162  0.89573741    -0.66100
Ni1701     Ni  0.97799887  0.94205547  0.54340288     1.34900
C1702       C  0.97075787  0.00039739  0.90878343     0.85000
O1703       O  0.52631847  0.52663696  0.51774357    -0.79100
O1704       O  0.50851450  0.48465067  0.56619300    -0.89300
C1705       C  0.58682117  0.53475153  0.92545149     0.84600
O1706       O  0.51833645  0.92337246  0.53682499    -0.67500
O1707       O  0.99275137  0.94881077  0.86099284    -0.86800
C1708       C  0.54949430  0.94234434  0.52633739     0.85400
C1709       C  0.52539543  0.51656749  0.55347265     1.07000
H1710       H  0.54131295  0.94717344  0.93931688     0.38800
O1711       O  0.52516148  0.96162285  0.93478040    -1.09500
O1712       O  0.95628419  0.96816147  0.92213054    -0.66100
Ni1713     Ni  0.97735119  0.93387486  0.94872377     1.26300
O1714       O  0.55502750  0.97115480  0.00520152    -0.66400
O1715       O  0.97328198  0.90418403  0.90497039    -0.78700
C1716       C  0.92260570  0.90114513  0.50152993     0.84800
O1717       O  0.92967502  0.90769997  0.96542335    -0.65800
Ni1718     Ni  0.53291330  0.98200133  0.88245343     1.27400
Ni1719     Ni  0.52674956  0.99531966  0.97578451     1.26100
H1720       H  0.96546991  0.97814659  0.99146393     0.39300
C1721       C  0.87411026  0.00887850  0.87771864    -0.01600
C1722       C  0.90793776  0.52217387  0.85842162     0.08100
C1723       C  0.90992506  0.52395006  0.81742764    -0.01700
C1724       C  0.87856831  0.51604595  0.79607665    -0.01700
C1725       C  0.84479394  0.00217388  0.81538662     0.08200
C1726       C  0.84307170  0.99760296  0.85639353    -0.01900
Br1727     Br  0.79779561  0.97879418  0.88434629    -0.00400
Br1728     Br  0.86931736  0.00961433  0.93356983    -0.00500
Br1729     Br  0.88241219  0.52541280  0.74052959    -0.00500
Br1730     Br  0.95585237  0.53651197  0.79060983    -0.00500
C1731       C  0.99544029  0.63582420  0.80128213    -0.01600
C1732       C  0.96916128  0.65032378  0.78496184     0.08100
C1733       C  0.93371109  0.63893515  0.80148308    -0.01700
C1734       C  0.92578234  0.61580452  0.83514832    -0.01700
C1735       C  0.95254961  0.60324832  0.85197592     0.08200
C1736       C  0.98730268  0.61326396  0.83503338    -0.01900
Br1737     Br  0.02378760  0.59417716  0.85683242    -0.00400
Br1738     Br  0.54214476  0.64296779  0.77624009    -0.00500
Br1739     Br  0.87830127  0.60149266  0.85892118    -0.00500
Br1740     Br  0.89484698  0.65346669  0.77892312    -0.00500
C1741       C  0.63928660  0.94299905  0.69300426    -0.01600
C1742       C  0.66724299  0.92716414  0.69505448     0.08100
C1743       C  0.66887038  0.90066638  0.66891643    -0.01700
C1744       C  0.65005404  0.89842296  0.63448518    -0.01700
C1745       C  0.62607699  0.91935263  0.62881522     0.08200
C1746       C  0.61910033  0.93980257  0.65966293    -0.01900
Br1747     Br  0.58605385  0.96795091  0.65516680    -0.00400
Br1748     Br  0.62682172  0.96585504  0.73761156    -0.00500
Br1749     Br  0.66168339  0.87078538  0.59365961    -0.00500
Br1750     Br  0.69784692  0.86861715  0.67947965    -0.00500
C1751       C  0.52896449  0.87260345  0.61112410    -0.01600
C1752       C  0.55854805  0.87904903  0.58499106     0.08100
C1753       C  0.56938948  0.84974174  0.57172899    -0.01700
C1754       C  0.55746260  0.81613202  0.59175620    -0.01700
C1755       C  0.52905775  0.80978793  0.61959922     0.08200
C1756       C  0.51305288  0.83750859  0.62660536    -0.01900
Br1757     Br  0.97121862  0.82828259  0.66003770    -0.00400
Br1758     Br  0.51017334  0.91121510  0.62594273    -0.00500
Br1759     Br  0.58227860  0.78066609  0.58283894    -0.00500
Br1760     Br  0.59928801  0.85571171  0.52509108    -0.00500
C1761       C  0.50093901  0.61266096  0.64582161    -0.01600
C1762       C  0.51067088  0.64782098  0.62867306     0.08100
C1763       C  0.52725214  0.65364684  0.59119949    -0.01700
C1764       C  0.54028035  0.62676677  0.57471414    -0.01700
C1765       C  0.53562630  0.59350921  0.59491089     0.08200
C1766       C  0.51271012  0.58529301  0.62850478    -0.01900
Br1767     Br  0.50131956  0.53796664  0.65363699    -0.00400
Br1768     Br  0.97356539  0.60262710  0.69438721    -0.00500
Br1769     Br  0.56523195  0.63506281  0.52485371    -0.00500
Br1770     Br  0.53082218  0.69759940  0.56200685    -0.00500
C1771       C  0.67330660  0.66545641  0.59664805    -0.01600
C1772       C  0.66968617  0.67903238  0.63340572     0.08100
C1773       C  0.63810661  0.66383153  0.65622438    -0.01700
C1774       C  0.61341467  0.63207582  0.64543455    -0.01700
C1775       C  0.61712390  0.61815479  0.60889744     0.08200
C1776       C  0.64697443  0.63562216  0.58420705    -0.01900
Br1777     Br  0.65448156  0.61613768  0.53509409    -0.00400
Br1778     Br  0.71508305  0.68700502  0.56369002    -0.00500
Br1779     Br  0.58005387  0.60390423  0.68456785    -0.00500
Br1780     Br  0.62944047  0.68435980  0.70400481    -0.00500
C1781       C  0.72746497  0.64759542  0.80733681    -0.01600
C1782       C  0.70989929  0.67121500  0.78921709     0.08100
C1783       C  0.67886204  0.67580400  0.80858572    -0.01700
C1784       C  0.66338046  0.65389700  0.84151874    -0.01700
C1785       C  0.68056528  0.63008290  0.85887556     0.08200
C1786       C  0.71328862  0.62804469  0.84250211    -0.01900
Br1787     Br  0.73942654  0.59959964  0.86937560    -0.00400
Br1788     Br  0.77269222  0.64361886  0.78686363    -0.00500
Br1789     Br  0.61653965  0.65475979  0.86081586    -0.00500
Br1790     Br  0.65690401  0.71294068  0.79316209    -0.00500
C1791       C  0.65412346  0.54843093  0.82891872    -0.01600
C1792       C  0.65350095  0.54570819  0.86947812     0.08100
C1793       C  0.66833719  0.52050949  0.88823219    -0.01700
C1794       C  0.68565001  0.49993407  0.86628904    -0.01700
C1795       C  0.69217135  0.50774143  0.82591981     0.08200
C1796       C  0.67586519  0.53231127  0.80725103    -0.01900
Br1797     Br  0.68430798  0.54744076  0.75268645    -0.00400
Br1798     Br  0.62480224  0.57426963  0.80344306    -0.00500
Br1799     Br  0.70244544  0.96345327  0.89278370    -0.00500
Br1800     Br  0.66856909  0.51673978  0.94417355    -0.00500
C1801       C  0.86108655  0.93576800  0.63685992    -0.01600
C1802       C  0.84345762  0.92771761  0.60183608     0.08100
C1803       C  0.80690172  0.92426424  0.60084689    -0.01700
C1804       C  0.78884254  0.93061780  0.63426461    -0.01700
C1805       C  0.80491523  0.93214151  0.67067600     0.08200
C1806       C  0.84103537  0.93308003  0.67188754    -0.01900
Br1807     Br  0.86377562  0.93426430  0.72083259    -0.00400
Br1808     Br  0.91148582  0.95964959  0.63593079    -0.00500
Br1809     Br  0.74616474  0.94526089  0.62743231    -0.00500
Br1810     Br  0.78278257  0.91585617  0.55256025    -0.00500
C1811       C  0.86602317  0.85448423  0.60493080    -0.01600
C1812       C  0.85945511  0.86314804  0.56674264     0.08100
C1813       C  0.82989019  0.84010023  0.54919107    -0.01700
C1814       C  0.80676424  0.81031978  0.57097697    -0.01700
C1815       C  0.81114287  0.80563241  0.61120108     0.08200
C1816       C  0.83960178  0.83011270  0.62814609    -0.01900
Br1817     Br  0.83678989  0.83931225  0.68208404    -0.00400
Br1818     Br  0.91167280  0.87551969  0.62489600    -0.00500
Br1819     Br  0.76646385  0.77947941  0.54736230    -0.00500
Br1820     Br  0.82034017  0.85015005  0.49613282    -0.00500
C1821       C  0.84873866  0.81259419  0.81851116    -0.01600
C1822       C  0.88069932  0.83276634  0.79898464     0.08100
C1823       C  0.88958784  0.82362935  0.76174233    -0.01700
C1824       C  0.86779558  0.79333251  0.74499949    -0.01700
C1825       C  0.83333150  0.77763281  0.76131231     0.08200
C1826       C  0.82463491  0.78564700  0.79916535    -0.01900
Br1827     Br  0.77968698  0.75940299  0.82425996    -0.00400
Br1828     Br  0.83644072  0.82364798  0.87038114    -0.00500
Br1829     Br  0.88365661  0.77603745  0.69791805    -0.00500
Br1830     Br  0.92502425  0.85783288  0.72967981    -0.00500
C1831       C  0.94943160  0.81130129  0.82872120    -0.01600
C1832       C  0.95989197  0.84823799  0.81816136     0.08100
C1833       C  0.98798870  0.86116879  0.78974450    -0.01700
C1834       C  0.00102142  0.83669825  0.76820781    -0.01700
C1835       C  0.98506111  0.79933673  0.77393806     0.08200
C1836       C  0.96111271  0.78687617  0.80614570    -0.01900
Br1837     Br  0.94457495  0.73627956  0.81967647    -0.00400
Br1838     Br  0.91849897  0.79464219  0.87401762    -0.00500
Br1839     Br  0.53913058  0.85445613  0.72943569    -0.00500
Br1840     Br  0.50517281  0.91187277  0.77615885    -0.00500
loop_ 
_geom_bond_atom_site_label_1 
_geom_bond_atom_site_label_2 
_geom_bond_distance 
_geom_bond_site_symmetry_2 
_ccdc_geom_bond_type 
N1            C5   1.363       .  A
N1            C2   1.359       .  A
N1          C222   1.454       .  S
C2            C3   1.382       .  A
C2           C88   1.460       .  S
C3            C4   1.365       .  A
C3            H6   1.083       .  S
C4            C5   1.379       .  A
C4            H7   1.082       .  S
C5          C212   1.475       .  S
N8           C12   1.358       .  A
N8            C9   1.357       .  A
N8          C202   1.452       .  S
C9           C10   1.386       .  A
C9          C106   1.466       .  S
C10          C11   1.368       .  A
C10          H13   1.081   1_554  S
C11          C12   1.375       .  A
C11          H14   1.082       .  S
C12         C192   1.470       .  S
N15          C19   1.359       .  A
N15          C16   1.351       .  A
N15         C182   1.440       .  S
C16          C17   1.379       .  A
C16          C95   1.472       .  S
C17          C18   1.377       .  A
C17          H20   1.081       .  S
C18          C19   1.386       .  A
C18          H21   1.082       .  S
C19         C175   1.492       .  S
O22         Ni30   1.914       .  S
O22          C32   1.283       .  A
O23         Ni30   1.933       .  S
O23          C33   1.284       .  A
O24         Ni30   1.907       .  S
O24          C34   1.277       .  A
O25         Ni30   1.925       .  S
O25          C35   1.280       .  A
O26         Ni31   1.948       .  S
O26          C35   1.288       .  A
O27         Ni31   1.939       .  S
O27          C34   1.286       .  A
O28         Ni31   1.915       .  S
O28          C33   1.281       .  A
O29         Ni31   1.909       .  S
O29          C32   1.276       .  A
Ni30        Ni31   2.382       .  S
C32         C215   1.471       .  S
C33         C162   1.490       .  S
C34         C172   1.508       .  S
C35         C205   1.496       .  S
N36          C40   1.368       .  A
N36          C37   1.366       .  A
N36         C155   1.447       .  S
C37          C38   1.378       .  A
C37          C99   1.481       .  S
C38          C39   1.365       .  A
C38          H41   1.076   1_545  S
C39          C40   1.376       .  A
C39          H42   1.082       .  S
C40         C165   1.491       .  S
N43          C47   1.362       .  A
N43          C44   1.359       .  A
N43         C142   1.439       .  S
C44          C45   1.387       .  A
C44          C98   1.480       .  S
C45          C46   1.371       .  A
C45          H48   1.081       .  S
C46          C47   1.377       .  A
C46          H49   1.082       .  S
C47         C135   1.486       .  S
N50          C54   1.355       .  A
N50          C51   1.360       .  A
N50         C112   1.451       .  S
C51          C52   1.385       .  A
C51         C552   1.469       .  S
C52          C53   1.372       .  A
C52          H55   1.083       .  S
C53          C54   1.380       .  A
C53          H56   1.082       .  S
C54         C125   1.476       .  S
O57         Ni65   1.934       .  S
O57         C987   1.282   1_455  A
O58         Ni65   1.938       .  S
O58          C68   1.285       .  A
O59         Ni65   1.911       .  S
O59          C69   1.279       .  A
O60         Ni65   1.908       .  S
O60         C990   1.280   1_455  A
O61         Ni66   1.916       .  S
O61          C70   1.279       .  A
O62         Ni66   1.920       .  S
O62         C989   1.282       .  A
O63         Ni66   1.933       .  S
O63         C988   1.282       .  A
O64         Ni66   1.937       .  S
O64          C67   1.286       .  A
Ni65       Ni986   2.382   1_455  S
Ni66       Ni985   2.382       .  S
C67         C225   1.495       .  S
C67         O977   1.282       .  A
C68         C152   1.493       .  S
C68         O983   1.282   1_455  A
C69         C145   1.479       .  S
C69         O982   1.282   1_455  A
C70         C122   1.495       .  S
C70         O980   1.280       .  A
O71         Ni79   1.902       .  S
O71          C81   1.273       .  A
O72         Ni79   1.917       .  S
O72          C82   1.280       .  A
O73         Ni79   1.949       .  S
O73          C83   1.290       .  A
O74         Ni79   1.944       .  S
O74          C84   1.288       .  A
O75         Ni80   1.878       .  S
O75          C84   1.271       .  A
O76        Ni540   1.878   1_545  S
O76         C543   1.269   1_545  A
O77         Ni80   1.940       .  S
O77          C82   1.286       .  A
O78         Ni80   1.944       .  S
O78          C81   1.290       .  A
Ni79        Ni80   2.385       .  S
Ni80        O536   1.878       .  S
C81         C132   1.479       .  S
C82         C115   1.497       .  S
C83         C645   1.490       .  S
C83         O536   1.269       .  A
C84         C195   1.467       .  S
O85         Ni91   1.925       .  S
O85         C106   1.270       .  A
O86        Ni569   1.895   1_545  S
O86          C95   1.264       .  A
O87         H110   0.966       .  S
O87        Ni103   1.926       .  S
O87        Ni321   1.912       .  S
O87       Ni1029   1.873       .  S
C88         O105   1.263       .  A
C88          O97   1.265       .  A
O89        Ni568   1.927   1_545  S
O89          C95   1.271       .  A
O90       Ni1028   1.904       .  S
O90          C92   1.278       .  A
Ni91       O1474   1.958       .  S
Ni91       O1016   1.922       .  S
Ni91        O317   1.912   1_554  S
C92         C511   1.469       .  S
C92         O102   1.282       .  A
O93        Ni799   1.927   1_544  S
O93          C99   1.274       .  A
O94       Ni1471   1.958   1_455  S
O94          C99   1.284   1_565  A
O96       Ni1011   1.922   1_455  S
O96          C98   1.270       .  A
O97       Ni1028   1.922       .  S
C98         O334   1.273       .  A
H100        O101   0.966       .  S
O101       Ni109   1.953       .  S
O101       Ni108   1.922       .  S
O101      Ni1023   1.917   1_455  S
O102       Ni103   1.962       .  S
Ni103       O107   1.918       .  S
Ni103       O105   1.917       .  S
Ni103      O1021   1.917       .  S
O104       Ni109   1.924       .  S
O104        C328   1.273       .  A
C106        O337   1.267   1_554  A
O107        C336   1.267       .  A
Ni108       O549   1.927       .  S
Ni108      O1010   1.904       .  S
Ni108      O1017   1.922   1_455  S
Ni109       O546   1.895       .  S
Ni109       O783   1.927       .  S
Ni109      O1007   1.873   1_455  S
C111        C116   1.410       .  A
C111        C572   1.415       .  A
C111       Br118   1.931       .  S
C112        C113   1.411       .  A
C112        C571   1.415       .  A
C113        C114   1.415       .  A
C113       Br120   1.924       .  S
C114        C575   1.415       .  A
C114       Br119   1.929       .  S
C115        C116   1.415       .  A
C115        C574   1.415       .  A
C116       Br117   1.930       .  S
C121        C122   1.422       .  A
C121        C126   1.402       .  A
C121      Br1048   1.941       .  S
C122        C123   1.427       .  A
C123        C124   1.411       .  A
C123       Br130   1.936       .  S
C124        C125   1.403       .  A
C124       Br129   1.932       .  S
C125        C126   1.408       .  A
C126       Br127   1.939       .  S
Br128      C1041   1.941   1_455  S
C131        C132   1.398       .  A
C131        C136   1.404       .  A
C131       Br138   1.921       .  S
C132        C133   1.406       .  A
C133        C134   1.408       .  A
C133       Br140   1.933       .  S
C134        C135   1.414       .  A
C134       Br139   1.920       .  S
C135        C136   1.415       .  A
C136       Br137   1.916       .  S
C141        C142   1.405       .  A
C141        C146   1.407       .  A
C141       Br148   1.922       .  S
C142        C143   1.407       .  A
C143        C144   1.403       .  A
C143       Br150   1.927       .  S
C144        C145   1.408       .  A
C144       Br149   1.920       .  S
C145        C146   1.412       .  A
C146      Br1067   1.915   1_455  S
Br147      C1066   1.915       .  S
C151        C152   1.411       .  A
C151        C156   1.414       .  A
C151      Br1078   1.927   1_455  S
C152        C153   1.409       .  A
C153        C154   1.412       .  A
C153       Br160   1.915       .  S
C154        C155   1.405       .  A
C154       Br159   1.922       .  S
C155        C156   1.413       .  A
C156       Br157   1.929       .  S
Br158      C1071   1.927       .  S
C161        C162   1.409       .  A
C161        C166   1.410       .  A
C161       Br168   1.928       .  S
C162        C163   1.412       .  A
C163        C164   1.409       .  A
C163       Br170   1.918       .  S
C164        C165   1.409       .  A
C164       Br169   1.925       .  S
C165        C166   1.416       .  A
C166       Br167   1.928       .  S
C171        C172   1.426       .  A
C171        C176   1.417       .  A
C171       Br178   1.934       .  S
C172        C173   1.426       .  A
C173        C174   1.406       .  A
C173       Br180   1.937       .  S
C174        C175   1.411       .  A
C174       Br179   1.940       .  S
C175        C176   1.407       .  A
C176       Br177   1.930       .  S
C181        C182   1.397       .  A
C181        C186   1.402       .  A
C181       Br188   1.929       .  S
C182        C183   1.414       .  A
C183        C184   1.409   1_545  A
C183       Br190   1.929       .  S
C184        C185   1.413   1_565  A
C184       Br649   1.929       .  S
C185        C186   1.430       .  A
C185        C543   1.490   1_545  S
C186       Br187   1.939       .  S
Br189       C644   1.929       .  S
C191        C192   1.411       .  A
C191        C196   1.404       .  A
C191       Br198   1.930       .  S
C192        C193   1.400       .  A
C193        C194   1.399       .  A
C193       Br200   1.932       .  S
C194        C195   1.416       .  A
C194       Br199   1.925       .  S
C195        C196   1.405       .  A
C196       Br197   1.927       .  S
C201        C202   1.395       .  A
C201        C206   1.397       .  A
C201       Br208   1.907       .  S
C202        C203   1.419       .  A
C203        C204   1.424       .  A
C203       Br210   1.924   1_554  S
C204        C205   1.413       .  A
C204       Br209   1.919       .  S
C205        C206   1.406       .  A
C206       Br207   1.912       .  S
C211        C212   1.412       .  A
C211        C216   1.404       .  A
C211       Br218   1.933       .  S
C212        C213   1.404       .  A
C213        C214   1.402       .  A
C213       Br220   1.918       .  S
C214        C215   1.406       .  A
C214       Br219   1.930       .  S
C215        C216   1.407       .  A
C216       Br217   1.930       .  S
C221        C222   1.407       .  A
C221        C226   1.410       .  A
C221       Br228   1.922       .  S
C222        C223   1.418       .  A
C223        C224   1.419       .  A
C223      Br1150   1.928       .  S
C224        C225   1.413       .  A
C224      Br1149   1.930       .  S
C225        C226   1.410       .  A
C226       Br227   1.922       .  S
Br229      C1144   1.930       .  S
Br230      C1143   1.928   1_455  S
N231        C235   1.363       .  A
N231        C232   1.359       .  A
N231        C452   1.454       .  S
C232        C233   1.382       .  A
C232        C318   1.460       .  S
C233        C234   1.365       .  A
C233        H236   1.083       .  S
C234        C235   1.379       .  A
C234        H237   1.082       .  S
C235        C442   1.475       .  S
N238        C242   1.358       .  A
N238        C239   1.357       .  A
N238        C432   1.452       .  S
C239        C240   1.386       .  A
C239        C336   1.466       .  S
C240        C241   1.368       .  A
C240        H243   1.081       .  S
C241        C242   1.375       .  A
C241        H244   1.082       .  S
C242        C422   1.470       .  S
N245        C249   1.359       .  A
N245        C246   1.351       .  A
N245        C412   1.440       .  S
C246        C247   1.379       .  A
C246        C325   1.472       .  S
C247        C248   1.377       .  A
C247        H250   1.081       .  S
C248        C249   1.386       .  A
C248        H251   1.082       .  S
C249        C405   1.492       .  S
O252       Ni260   1.914       .  S
O252        C262   1.283       .  A
O253       Ni260   1.933       .  S
O253        C263   1.284       .  A
O254       Ni260   1.907       .  S
O254        C264   1.277       .  A
O255       Ni260   1.925       .  S
O255        C265   1.280       .  A
O256       Ni261   1.948       .  S
O256        C265   1.288       .  A
O257       Ni261   1.939       .  S
O257        C264   1.286       .  A
O258       Ni261   1.915       .  S
O258        C263   1.281       .  A
O259       Ni261   1.909       .  S
O259        C262   1.276       .  A
Ni260      Ni261   2.382       .  S
C262        C445   1.471       .  S
C263        C392   1.490       .  S
C264        C402   1.508       .  S
C265        C435   1.496       .  S
N266        C270   1.368       .  A
N266        C267   1.366       .  A
N266        C385   1.447       .  S
C267        C268   1.378       .  A
C267        C329   1.481       .  S
C268        C269   1.365       .  A
C268        H271   1.076   1_545  S
C269        C270   1.376       .  A
C269        H272   1.082       .  S
C270        C395   1.491       .  S
N273        C277   1.362       .  A
N273        C274   1.359       .  A
N273        C372   1.439       .  S
C274        C275   1.387       .  A
C274        C328   1.480       .  S
C275        C276   1.371       .  A
C275        H278   1.081       .  S
C276        C277   1.377       .  A
C276        H279   1.082       .  S
C277        C365   1.486       .  S
N280        C284   1.355       .  A
N280        C281   1.360       .  A
N280        C342   1.451       .  S
C281        C282   1.385       .  A
C281        C782   1.469       .  S
C282        C283   1.372       .  A
C282        H285   1.083       .  S
C283        C284   1.380       .  A
C283        H286   1.082       .  S
C284        C355   1.476       .  S
O287       Ni295   1.934       .  S
O287       C1217   1.282   1_455  A
O288       Ni295   1.938       .  S
O288        C298   1.285       .  A
O289       Ni295   1.911       .  S
O289        C299   1.279       .  A
O290       Ni295   1.908       .  S
O290       C1220   1.280   1_455  A
O291       Ni296   1.916       .  S
O291        C300   1.279       .  A
O292       Ni296   1.920       .  S
O292       C1219   1.282       .  A
O293       Ni296   1.933       .  S
O293       C1218   1.282       .  A
O294       Ni296   1.937       .  S
O294        C297   1.286       .  A
Ni295     Ni1216   2.382   1_455  S
Ni296     Ni1215   2.382       .  S
C297        C455   1.495       .  S
C297       O1207   1.282       .  A
C298        C382   1.493       .  S
C298       O1213   1.282   1_455  A
C299        C375   1.479       .  S
C299       O1212   1.282   1_455  A
C300        C352   1.495       .  S
C300       O1210   1.280       .  A
O301       Ni309   1.902       .  S
O301        C311   1.273       .  A
O302       Ni309   1.917       .  S
O302        C312   1.280       .  A
O303       Ni309   1.949       .  S
O303        C313   1.290       .  A
O304       Ni309   1.944       .  S
O304        C314   1.288       .  A
O305       Ni310   1.878       .  S
O305        C314   1.271       .  A
O306       Ni770   1.878   1_545  S
O306        C773   1.269   1_545  A
O307       Ni310   1.940       .  S
O307        C312   1.286       .  A
O308       Ni310   1.944       .  S
O308        C311   1.290       .  A
Ni309      Ni310   2.385       .  S
Ni310       O766   1.878       .  S
C311        C362   1.479       .  S
C312        C345   1.497       .  S
C313        C875   1.490       .  S
C313        O766   1.269       .  A
C314        C425   1.467       .  S
O315       Ni321   1.925       .  S
O315        C336   1.270       .  A
O316       Ni799   1.895   1_545  S
O316        C325   1.264       .  A
O317        H340   0.966       .  S
O317      Ni1259   1.873       .  S
O317       Ni333   1.926       .  S
C318        O335   1.263       .  A
C318        O327   1.265       .  A
O319       Ni798   1.927   1_545  S
O319        C325   1.271       .  A
O320      Ni1258   1.904       .  S
O320        C322   1.278       .  A
Ni321      O1704   1.958       .  S
Ni321      O1246   1.922       .  S
C322        C741   1.469       .  S
C322        O332   1.282       .  A
O323       Ni569   1.927   1_545  S
O323        C329   1.274       .  A
O324      Ni1701   1.958   1_455  S
O324        C329   1.284   1_565  A
O326      Ni1241   1.922   1_455  S
O326        C328   1.270       .  A
O327      Ni1258   1.922       .  S
H330        O331   0.966       .  S
O331       Ni339   1.953       .  S
O331      Ni1253   1.917   1_455  S
O331       Ni338   1.922       .  S
O332       Ni333   1.962       .  S
Ni333       O337   1.918       .  S
Ni333       O335   1.917       .  S
Ni333      O1251   1.917       .  S
O334       Ni339   1.924   1_554  S
Ni338       O779   1.927       .  S
Ni338      O1240   1.904       .  S
Ni338      O1247   1.922   1_455  S
Ni339       O776   1.895       .  S
Ni339       O553   1.927   1_556  S
Ni339      O1237   1.873   1_455  S
C341        C802   1.415       .  A
C341        C346   1.410       .  A
C341       Br348   1.931       .  S
C342        C801   1.415       .  A
C342        C343   1.411       .  A
C343        C344   1.415       .  A
C343       Br350   1.924       .  S
C344        C805   1.415       .  A
C344       Br349   1.929       .  S
C345        C804   1.415       .  A
C345        C346   1.415       .  A
C346       Br347   1.930       .  S
C351        C352   1.422       .  A
C351        C356   1.402       .  A
C351      Br1278   1.941       .  S
C352        C353   1.427       .  A
C353        C354   1.411       .  A
C353       Br360   1.936       .  S
C354        C355   1.403       .  A
C354       Br359   1.932       .  S
C355        C356   1.408       .  A
C356       Br357   1.939       .  S
Br358      C1271   1.941   1_455  S
C361        C362   1.398       .  A
C361        C366   1.404       .  A
C361       Br368   1.921       .  S
C362        C363   1.406       .  A
C363        C364   1.408       .  A
C363       Br370   1.933       .  S
C364        C365   1.414       .  A
C364       Br369   1.920       .  S
C365        C366   1.415       .  A
C366       Br367   1.916       .  S
C371        C372   1.405       .  A
C371        C376   1.407       .  A
C371       Br378   1.922       .  S
C372        C373   1.407       .  A
C373        C374   1.403       .  A
C373       Br380   1.927       .  S
C374        C375   1.408       .  A
C374       Br379   1.920       .  S
C375        C376   1.412       .  A
C376      Br1297   1.915   1_455  S
Br377      C1296   1.915       .  S
C381        C382   1.411       .  A
C381        C386   1.414       .  A
C381      Br1308   1.927   1_455  S
C382        C383   1.409       .  A
C383        C384   1.412       .  A
C383       Br390   1.915       .  S
C384        C385   1.405       .  A
C384       Br389   1.922       .  S
C385        C386   1.413       .  A
C386       Br387   1.929       .  S
Br388      C1301   1.927       .  S
C391        C392   1.409       .  A
C391        C396   1.410       .  A
C391       Br398   1.928       .  S
C392        C393   1.412       .  A
C393        C394   1.409       .  A
C393       Br400   1.918       .  S
C394        C395   1.409       .  A
C394       Br399   1.925       .  S
C395        C396   1.416       .  A
C396       Br397   1.928       .  S
C401        C402   1.426       .  A
C401        C406   1.417       .  A
C401       Br408   1.934       .  S
C402        C403   1.426       .  A
C403        C404   1.406       .  A
C403       Br410   1.937       .  S
C404        C405   1.411       .  A
C404       Br409   1.940       .  S
C405        C406   1.407       .  A
C406       Br407   1.930       .  S
C411        C412   1.397       .  A
C411        C416   1.402       .  A
C411       Br418   1.929       .  S
C412        C413   1.414       .  A
C413        C414   1.409   1_545  A
C413       Br420   1.929       .  S
C414        C415   1.413   1_565  A
C414       Br879   1.929       .  S
C415        C416   1.430       .  A
C415        C773   1.490   1_545  S
C416       Br417   1.939       .  S
Br419       C874   1.929       .  S
C421        C422   1.411       .  A
C421        C426   1.404       .  A
C421       Br428   1.930       .  S
C422        C423   1.400       .  A
C423        C424   1.399       .  A
C423       Br430   1.932       .  S
C424        C425   1.416       .  A
C424       Br429   1.925       .  S
C425        C426   1.405       .  A
C426       Br427   1.927       .  S
C431        C432   1.395       .  A
C431        C436   1.397       .  A
C431       Br438   1.907       .  S
C432        C433   1.419       .  A
C433        C434   1.424       .  A
C433       Br440   1.924       .  S
C434        C435   1.413       .  A
C434       Br439   1.919       .  S
C435        C436   1.406       .  A
C436       Br437   1.912       .  S
C441        C442   1.412       .  A
C441        C446   1.404       .  A
C441       Br448   1.933       .  S
C442        C443   1.404       .  A
C443        C444   1.402       .  A
C443       Br450   1.918       .  S
C444        C445   1.406       .  A
C444       Br449   1.930       .  S
C445        C446   1.407       .  A
C446       Br447   1.930       .  S
C451        C452   1.407       .  A
C451        C456   1.410       .  A
C451       Br458   1.922       .  S
C452        C453   1.418       .  A
C453        C454   1.419       .  A
C453      Br1380   1.928       .  S
C454        C455   1.413       .  A
C454      Br1379   1.930       .  S
C455        C456   1.410       .  A
C456       Br457   1.922       .  S
Br459      C1374   1.930       .  S
Br460      C1373   1.928   1_455  S
N461        C465   1.363       .  A
N461        C462   1.359       .  A
N461        C682   1.454       .  S
C462        C463   1.382       .  A
C462        C548   1.460       .  S
C463        C464   1.365       .  A
C463        H466   1.083       .  S
C464        C465   1.379       .  A
C464        H467   1.082       .  S
C465        C672   1.475       .  S
N468        C472   1.358       .  A
N468        C469   1.357       .  A
N468        C662   1.452       .  S
C469        C470   1.386       .  A
C469        C566   1.466       .  S
C470        C471   1.368       .  A
C470        H473   1.081   1_554  S
C471        C472   1.375       .  A
C471        H474   1.082       .  S
C472        C652   1.470       .  S
N475        C479   1.359       .  A
N475        C476   1.351       .  A
N475        C642   1.440       .  S
C476        C477   1.379       .  A
C476        C555   1.472       .  S
C477        C478   1.377       .  A
C477        H480   1.081       .  S
C478        C479   1.386       .  A
C478        H481   1.082       .  S
C479        C635   1.492       .  S
O482       Ni490   1.914       .  S
O482        C492   1.283       .  A
O483       Ni490   1.933       .  S
O483        C493   1.284       .  A
O484       Ni490   1.907       .  S
O484        C494   1.277       .  A
O485       Ni490   1.925       .  S
O485        C495   1.280       .  A
O486       Ni491   1.948       .  S
O486        C495   1.288       .  A
O487       Ni491   1.939       .  S
O487        C494   1.286       .  A
O488       Ni491   1.915       .  S
O488        C493   1.281       .  A
O489       Ni491   1.909       .  S
O489        C492   1.276       .  A
Ni490      Ni491   2.382       .  S
C492        C675   1.471       .  S
C493        C622   1.490       .  S
C494        C632   1.508       .  S
C495        C665   1.496       .  S
N496        C500   1.368       .  A
N496        C497   1.366       .  A
N496        C615   1.447       .  S
C497        C498   1.378       .  A
C497        C559   1.481       .  S
C498        C499   1.365       .  A
C498        H501   1.076       .  S
C499        C500   1.376       .  A
C499        H502   1.082       .  S
C500        C625   1.491       .  S
N503        C507   1.362       .  A
N503        C504   1.359       .  A
N503        C602   1.439       .  S
C504        C505   1.387       .  A
C504        C558   1.480       .  S
C505        C506   1.371       .  A
C505        H508   1.081       .  S
C506        C507   1.377       .  A
C506        H509   1.082       .  S
C507        C595   1.486       .  S
N510        C514   1.355       .  A
N510        C511   1.360       .  A
N510        C572   1.451       .  S
C511        C512   1.385       .  A
C512        C513   1.372       .  A
C512        H515   1.083       .  S
C513        C514   1.380       .  A
C513        H516   1.082       .  S
C514        C585   1.476       .  S
O517       Ni525   1.934       .  S
O517       C1447   1.282   1_455  A
O518       Ni525   1.938       .  S
O518        C528   1.285       .  A
O519       Ni525   1.911       .  S
O519        C529   1.279       .  A
O520       Ni525   1.908       .  S
O520       C1450   1.280   1_455  A
O521       Ni526   1.916       .  S
O521        C530   1.279       .  A
O522       Ni526   1.920       .  S
O522       C1449   1.282       .  A
O523       Ni526   1.933       .  S
O523       C1448   1.282       .  A
O524       Ni526   1.937       .  S
O524        C527   1.286       .  A
Ni525     Ni1446   2.382   1_455  S
Ni526     Ni1445   2.382       .  S
C527        C685   1.495       .  S
C527       O1437   1.282       .  A
C528        C612   1.493       .  S
C528       O1443   1.282   1_455  A
C529        C605   1.479       .  S
C529       O1442   1.282   1_455  A
C530        C582   1.495       .  S
C530       O1440   1.280       .  A
O531       Ni539   1.902       .  S
O531        C541   1.273       .  A
O532       Ni539   1.917       .  S
O532        C542   1.280       .  A
O533       Ni539   1.949       .  S
O533        C543   1.290       .  A
O534       Ni539   1.944       .  S
O534        C544   1.288       .  A
O535       Ni540   1.878       .  S
O535        C544   1.271       .  A
O537       Ni540   1.940   1_545  S
O537        C542   1.286   1_545  A
O538       Ni540   1.944       .  S
O538        C541   1.290       .  A
Ni539      Ni540   2.385       .  S
C541        C592   1.479       .  S
C542        C575   1.497   1_565  S
C544        C655   1.467       .  S
O545       Ni551   1.925       .  S
O545        C566   1.270       .  A
O546        C555   1.264       .  A
O547        H570   0.966       .  S
O547       Ni781   1.912       .  S
O547      Ni1489   1.873       .  S
O547       Ni563   1.926       .  S
C548        O565   1.263       .  A
C548        O557   1.265       .  A
O549        C555   1.271       .  A
O550      Ni1488   1.904   1_545  S
O550        C552   1.278       .  A
Ni551      O1014   1.958       .  S
Ni551      O1476   1.922       .  S
Ni551       O777   1.912   1_554  S
C552        O562   1.282   1_545  A
O553        C559   1.274       .  A
O554      Ni1011   1.958   1_455  S
O554        C559   1.284       .  A
O556      Ni1471   1.922   1_455  S
O556        C558   1.270       .  A
O557      Ni1488   1.922       .  S
C558        O794   1.273       .  A
H560        O561   0.966       .  S
O561       Ni569   1.953       .  S
O561      Ni1483   1.917   1_455  S
O561       Ni568   1.922       .  S
O562       Ni563   1.962       .  S
Ni563       O567   1.918       .  S
Ni563       O565   1.917       .  S
Ni563      O1481   1.917       .  S
O564       Ni569   1.924       .  S
O564        C788   1.273       .  A
C566        O797   1.267   1_554  A
O567        C796   1.267       .  A
Ni568      O1470   1.904   1_565  S
Ni568      O1477   1.922   1_455  S
Ni569      O1467   1.873   1_455  S
C571        C576   1.410   1_545  A
C571       Br578   1.931       .  S
C572        C573   1.411       .  A
C573        C574   1.415       .  A
C573       Br580   1.924       .  S
C574       Br579   1.929       .  S
C575        C576   1.415   1_545  A
C576       Br577   1.930       .  S
C581        C582   1.422       .  A
C581        C586   1.402       .  A
C581      Br1508   1.941       .  S
C582        C583   1.427       .  A
C583        C584   1.411       .  A
C583       Br590   1.936       .  S
C584        C585   1.403       .  A
C584       Br589   1.932       .  S
C585        C586   1.408       .  A
C586       Br587   1.939       .  S
Br588      C1501   1.941   1_455  S
C591        C592   1.398       .  A
C591        C596   1.404       .  A
C591       Br598   1.921       .  S
C592        C593   1.406       .  A
C593        C594   1.408       .  A
C593       Br600   1.933       .  S
C594        C595   1.414       .  A
C594       Br599   1.920       .  S
C595        C596   1.415       .  A
C596       Br597   1.916       .  S
C601        C602   1.405       .  A
C601        C606   1.407       .  A
C601       Br608   1.922       .  S
C602        C603   1.407       .  A
C603        C604   1.403       .  A
C603       Br610   1.927       .  S
C604        C605   1.408       .  A
C604       Br609   1.920       .  S
C605        C606   1.412       .  A
C606      Br1527   1.915   1_455  S
Br607      C1526   1.915       .  S
C611        C612   1.411       .  A
C611        C616   1.414       .  A
C611      Br1538   1.927   1_455  S
C612        C613   1.409       .  A
C613        C614   1.412       .  A
C613       Br620   1.915       .  S
C614        C615   1.405       .  A
C614       Br619   1.922       .  S
C615        C616   1.413       .  A
C616       Br617   1.929       .  S
Br618      C1531   1.927       .  S
C621        C622   1.409       .  A
C621        C626   1.410       .  A
C621       Br628   1.928       .  S
C622        C623   1.412       .  A
C623        C624   1.409       .  A
C623       Br630   1.918       .  S
C624        C625   1.409       .  A
C624       Br629   1.925       .  S
C625        C626   1.416       .  A
C626       Br627   1.928       .  S
C631        C632   1.426       .  A
C631        C636   1.417       .  A
C631       Br638   1.934       .  S
C632        C633   1.426       .  A
C633        C634   1.406       .  A
C633       Br640   1.937       .  S
C634        C635   1.411       .  A
C634       Br639   1.940       .  S
C635        C636   1.407       .  A
C636       Br637   1.930       .  S
C641        C642   1.397       .  A
C641        C646   1.402       .  A
C641       Br648   1.929       .  S
C642        C643   1.414       .  A
C643        C644   1.409       .  A
C643       Br650   1.929       .  S
C644        C645   1.413       .  A
C645        C646   1.430       .  A
C646       Br647   1.939       .  S
C651        C652   1.411       .  A
C651        C656   1.404       .  A
C651       Br658   1.930       .  S
C652        C653   1.400       .  A
C653        C654   1.399       .  A
C653       Br660   1.932       .  S
C654        C655   1.416       .  A
C654       Br659   1.925       .  S
C655        C656   1.405       .  A
C656       Br657   1.927       .  S
C661        C662   1.395       .  A
C661        C666   1.397       .  A
C661       Br668   1.907       .  S
C662        C663   1.419       .  A
C663        C664   1.424       .  A
C663       Br670   1.924   1_554  S
C664        C665   1.413       .  A
C664       Br669   1.919       .  S
C665        C666   1.406       .  A
C666       Br667   1.912       .  S
C671        C672   1.412       .  A
C671        C676   1.404       .  A
C671       Br678   1.933       .  S
C672        C673   1.404       .  A
C673        C674   1.402       .  A
C673       Br680   1.918       .  S
C674        C675   1.406       .  A
C674       Br679   1.930       .  S
C675        C676   1.407       .  A
C676       Br677   1.930       .  S
C681        C682   1.407       .  A
C681        C686   1.410       .  A
C681       Br688   1.922       .  S
C682        C683   1.418       .  A
C683        C684   1.419       .  A
C683      Br1610   1.928       .  S
C684        C685   1.413       .  A
C684      Br1609   1.930       .  S
C685        C686   1.410       .  A
C686       Br687   1.922       .  S
Br689      C1604   1.930       .  S
Br690      C1603   1.928   1_455  S
N691        C695   1.363       .  A
N691        C692   1.359       .  A
N691        C912   1.454       .  S
C692        C693   1.382       .  A
C692        C778   1.460       .  S
C693        C694   1.365       .  A
C693        H696   1.083       .  S
C694        C695   1.379       .  A
C694        H697   1.082       .  S
C695        C902   1.475       .  S
N698        C702   1.358       .  A
N698        C699   1.357       .  A
N698        C892   1.452       .  S
C699        C700   1.386       .  A
C699        C796   1.466       .  S
C700        C701   1.368       .  A
C700        H703   1.081       .  S
C701        C702   1.375       .  A
C701        H704   1.082       .  S
C702        C882   1.470       .  S
N705        C709   1.359       .  A
N705        C706   1.351       .  A
N705        C872   1.440       .  S
C706        C707   1.379       .  A
C706        C785   1.472       .  S
C707        C708   1.377       .  A
C707        H710   1.081       .  S
C708        C709   1.386       .  A
C708        H711   1.082       .  S
C709        C865   1.492       .  S
O712       Ni720   1.914       .  S
O712        C722   1.283       .  A
O713       Ni720   1.933       .  S
O713        C723   1.284       .  A
O714       Ni720   1.907       .  S
O714        C724   1.277       .  A
O715       Ni720   1.925       .  S
O715        C725   1.280       .  A
O716       Ni721   1.948       .  S
O716        C725   1.288       .  A
O717       Ni721   1.939       .  S
O717        C724   1.286       .  A
O718       Ni721   1.915       .  S
O718        C723   1.281       .  A
O719       Ni721   1.909       .  S
O719        C722   1.276       .  A
Ni720      Ni721   2.382       .  S
C722        C905   1.471       .  S
C723        C852   1.490       .  S
C724        C862   1.508       .  S
C725        C895   1.496       .  S
N726        C730   1.368       .  A
N726        C727   1.366       .  A
N726        C845   1.447       .  S
C727        C728   1.378       .  A
C727        C789   1.481       .  S
C728        C729   1.365       .  A
C728        H731   1.076       .  S
C729        C730   1.376       .  A
C729        H732   1.082       .  S
C730        C855   1.491       .  S
N733        C737   1.362       .  A
N733        C734   1.359       .  A
N733        C832   1.439       .  S
C734        C735   1.387       .  A
C734        C788   1.480       .  S
C735        C736   1.371       .  A
C735        H738   1.081       .  S
C736        C737   1.377       .  A
C736        H739   1.082       .  S
C737        C825   1.486       .  S
N740        C744   1.355       .  A
N740        C741   1.360       .  A
N740        C802   1.451       .  S
C741        C742   1.385       .  A
C742        C743   1.372       .  A
C742        H745   1.083       .  S
C743        C744   1.380       .  A
C743        H746   1.082       .  S
C744        C815   1.476       .  S
O747       Ni755   1.934       .  S
O747       C1677   1.282   1_455  A
O748       Ni755   1.938       .  S
O748        C758   1.285       .  A
O749       Ni755   1.911       .  S
O749        C759   1.279       .  A
O750       Ni755   1.908       .  S
O750       C1680   1.280   1_455  A
O751       Ni756   1.916       .  S
O751        C760   1.279       .  A
O752       Ni756   1.920       .  S
O752       C1679   1.282       .  A
O753       Ni756   1.933       .  S
O753       C1678   1.282       .  A
O754       Ni756   1.937       .  S
O754        C757   1.286       .  A
Ni755     Ni1676   2.382   1_455  S
Ni756     Ni1675   2.382       .  S
C757        C915   1.495       .  S
C757       O1667   1.282       .  A
C758        C842   1.493       .  S
C758       O1673   1.282   1_455  A
C759        C835   1.479       .  S
C759       O1672   1.282   1_455  A
C760        C812   1.495       .  S
C760       O1670   1.280       .  A
O761       Ni769   1.902       .  S
O761        C771   1.273       .  A
O762       Ni769   1.917       .  S
O762        C772   1.280       .  A
O763       Ni769   1.949       .  S
O763        C773   1.290       .  A
O764       Ni769   1.944       .  S
O764        C774   1.288       .  A
O765       Ni770   1.878       .  S
O765        C774   1.271       .  A
O767       Ni770   1.940   1_545  S
O767        C772   1.286   1_545  A
O768       Ni770   1.944       .  S
O768        C771   1.290       .  A
Ni769      Ni770   2.385       .  S
C771        C822   1.479       .  S
C772        C805   1.497   1_565  S
C774        C885   1.467       .  S
O775       Ni781   1.925       .  S
O775        C796   1.270       .  A
O776        C785   1.264       .  A
O777        H800   0.966       .  S
O777      Ni1719   1.873       .  S
O777       Ni793   1.926       .  S
C778        O795   1.263       .  A
C778        O787   1.265       .  A
O779        C785   1.271       .  A
O780      Ni1718   1.904   1_545  S
O780        C782   1.278       .  A
Ni781      O1244   1.958       .  S
Ni781      O1706   1.922       .  S
C782        O792   1.282   1_545  A
O783        C789   1.274       .  A
O784      Ni1241   1.958   1_455  S
O784        C789   1.284       .  A
O786      Ni1701   1.922   1_455  S
O786        C788   1.270       .  A
O787      Ni1718   1.922       .  S
H790        O791   0.966       .  S
O791       Ni799   1.953       .  S
O791      Ni1713   1.917   1_455  S
O791       Ni798   1.922       .  S
O792       Ni793   1.962       .  S
Ni793       O797   1.918       .  S
Ni793       O795   1.917       .  S
Ni793      O1711   1.917       .  S
O794       Ni799   1.924   1_554  S
Ni798      O1700   1.904   1_565  S
Ni798      O1707   1.922   1_455  S
Ni799      O1697   1.873   1_455  S
C801        C806   1.410   1_545  A
C801       Br808   1.931       .  S
C802        C803   1.411       .  A
C803        C804   1.415       .  A
C803       Br810   1.924       .  S
C804       Br809   1.929       .  S
C805        C806   1.415   1_545  A
C806       Br807   1.930       .  S
C811        C812   1.422       .  A
C811        C816   1.402       .  A
C811      Br1738   1.941       .  S
C812        C813   1.427       .  A
C813        C814   1.411       .  A
C813       Br820   1.936       .  S
C814        C815   1.403       .  A
C814       Br819   1.932       .  S
C815        C816   1.408       .  A
C816       Br817   1.939       .  S
Br818      C1731   1.941   1_455  S
C821        C822   1.398       .  A
C821        C826   1.404       .  A
C821       Br828   1.921       .  S
C822        C823   1.406       .  A
C823        C824   1.408       .  A
C823       Br830   1.933       .  S
C824        C825   1.414       .  A
C824       Br829   1.920       .  S
C825        C826   1.415       .  A
C826       Br827   1.916       .  S
C831        C832   1.405       .  A
C831        C836   1.407       .  A
C831       Br838   1.922       .  S
C832        C833   1.407       .  A
C833        C834   1.403       .  A
C833       Br840   1.927       .  S
C834        C835   1.408       .  A
C834       Br839   1.920       .  S
C835        C836   1.412       .  A
C836      Br1757   1.915   1_455  S
Br837      C1756   1.915       .  S
C841        C842   1.411       .  A
C841        C846   1.414       .  A
C841      Br1768   1.927   1_455  S
C842        C843   1.409       .  A
C843        C844   1.412       .  A
C843       Br850   1.915       .  S
C844        C845   1.405       .  A
C844       Br849   1.922       .  S
C845        C846   1.413       .  A
C846       Br847   1.929       .  S
Br848      C1761   1.927       .  S
C851        C852   1.409       .  A
C851        C856   1.410       .  A
C851       Br858   1.928       .  S
C852        C853   1.412       .  A
C853        C854   1.409       .  A
C853       Br860   1.918       .  S
C854        C855   1.409       .  A
C854       Br859   1.925       .  S
C855        C856   1.416       .  A
C856       Br857   1.928       .  S
C861        C862   1.426       .  A
C861        C866   1.417       .  A
C861       Br868   1.934       .  S
C862        C863   1.426       .  A
C863        C864   1.406       .  A
C863       Br870   1.937       .  S
C864        C865   1.411       .  A
C864       Br869   1.940       .  S
C865        C866   1.407       .  A
C866       Br867   1.930       .  S
C871        C872   1.397       .  A
C871        C876   1.402       .  A
C871       Br878   1.929       .  S
C872        C873   1.414       .  A
C873        C874   1.409       .  A
C873       Br880   1.929       .  S
C874        C875   1.413       .  A
C875        C876   1.430       .  A
C876       Br877   1.939       .  S
C881        C882   1.411       .  A
C881        C886   1.404       .  A
C881       Br888   1.930       .  S
C882        C883   1.400       .  A
C883        C884   1.399       .  A
C883       Br890   1.932       .  S
C884        C885   1.416       .  A
C884       Br889   1.925       .  S
C885        C886   1.405       .  A
C886       Br887   1.927       .  S
C891        C892   1.395       .  A
C891        C896   1.397       .  A
C891       Br898   1.907       .  S
C892        C893   1.419       .  A
C893        C894   1.424       .  A
C893       Br900   1.924       .  S
C894        C895   1.413       .  A
C894       Br899   1.919       .  S
C895        C896   1.406       .  A
C896       Br897   1.912       .  S
C901        C902   1.412       .  A
C901        C906   1.404       .  A
C901       Br908   1.933       .  S
C902        C903   1.404       .  A
C903        C904   1.402       .  A
C903       Br910   1.918       .  S
C904        C905   1.406       .  A
C904       Br909   1.930       .  S
C905        C906   1.407       .  A
C906       Br907   1.930       .  S
C911        C912   1.407       .  A
C911        C916   1.410       .  A
C911       Br918   1.922       .  S
C912        C913   1.418       .  A
C913        C914   1.419       .  A
C913      Br1840   1.928       .  S
C914        C915   1.413       .  A
C914      Br1839   1.930       .  S
C915        C916   1.410       .  A
C916       Br917   1.922       .  S
Br919      C1834   1.930       .  S
Br920      C1833   1.928   1_455  S
N921        C925   1.363       .  A
N921        C922   1.359       .  A
N921       C1142   1.454       .  S
C922        C923   1.382       .  A
C922       C1008   1.460       .  S
C923        C924   1.365       .  A
C923        H926   1.083       .  S
C924        C925   1.379       .  A
C924        H927   1.082       .  S
C925       C1132   1.475       .  S
N928        C932   1.358       .  A
N928        C929   1.357       .  A
N928       C1122   1.452       .  S
C929        C930   1.386       .  A
C929       C1026   1.466       .  S
C930        C931   1.368       .  A
C930        H933   1.081   1_554  S
C931        C932   1.375       .  A
C931        H934   1.082       .  S
C932       C1112   1.470       .  S
N935        C939   1.359       .  A
N935        C936   1.351       .  A
N935       C1102   1.440       .  S
C936        C937   1.379       .  A
C936       C1015   1.472       .  S
C937        C938   1.377       .  A
C937        H940   1.081       .  S
C938        C939   1.386       .  A
C938        H941   1.082       .  S
C939       C1095   1.492       .  S
O942       Ni950   1.914       .  S
O942        C952   1.283       .  A
O943       Ni950   1.933       .  S
O943        C953   1.284       .  A
O944       Ni950   1.907       .  S
O944        C954   1.277       .  A
O945       Ni950   1.925       .  S
O945        C955   1.280       .  A
O946       Ni951   1.948       .  S
O946        C955   1.288       .  A
O947       Ni951   1.939       .  S
O947        C954   1.286       .  A
O948       Ni951   1.915       .  S
O948        C953   1.281       .  A
O949       Ni951   1.909       .  S
O949        C952   1.276       .  A
Ni950      Ni951   2.382       .  S
C952       C1135   1.471       .  S
C953       C1082   1.490       .  S
C954       C1092   1.508       .  S
C955       C1125   1.496       .  S
N956        C960   1.368       .  A
N956        C957   1.366       .  A
N956       C1075   1.447       .  S
C957        C958   1.378       .  A
C957       C1019   1.481       .  S
C958        C959   1.365       .  A
C958        H961   1.076   1_545  S
C959        C960   1.376       .  A
C959        H962   1.082       .  S
C960       C1085   1.491       .  S
N963        C967   1.362       .  A
N963        C964   1.359       .  A
N963       C1062   1.439       .  S
C964        C965   1.387       .  A
C964       C1018   1.480       .  S
C965        C966   1.371       .  A
C965        H968   1.081       .  S
C966        C967   1.377       .  A
C966        H969   1.082       .  S
C967       C1055   1.486       .  S
N970        C974   1.355       .  A
N970        C971   1.360       .  A
N970       C1032   1.451       .  S
C971        C972   1.385       .  A
C971       C1472   1.469       .  S
C972        C973   1.372       .  A
C972        H975   1.083       .  S
C973        C974   1.380       .  A
C973        H976   1.082       .  S
C974       C1045   1.476       .  S
O977       Ni985   1.934       .  S
O978       Ni985   1.938       .  S
O978        C988   1.285       .  A
O979       Ni985   1.911       .  S
O979        C989   1.279       .  A
O980       Ni985   1.908       .  S
O981       Ni986   1.916       .  S
O981        C990   1.279       .  A
O982       Ni986   1.920       .  S
O983       Ni986   1.933       .  S
O984       Ni986   1.937       .  S
O984        C987   1.286       .  A
C987       C1145   1.495       .  S
C988       C1072   1.493       .  S
C989       C1065   1.479       .  S
C990       C1042   1.495       .  S
O991       Ni999   1.902       .  S
O991       C1001   1.273       .  A
O992       Ni999   1.917       .  S
O992       C1002   1.280       .  A
O993       Ni999   1.949       .  S
O993       C1003   1.290       .  A
O994       Ni999   1.944       .  S
O994       C1004   1.288       .  A
O995      Ni1000   1.878       .  S
O995       C1004   1.271       .  A
O996      Ni1460   1.878   1_545  S
O996       C1463   1.269   1_545  A
O997      Ni1000   1.940       .  S
O997       C1002   1.286       .  A
O998      Ni1000   1.944       .  S
O998       C1001   1.290       .  A
Ni999     Ni1000   2.385       .  S
Ni1000     O1456   1.878       .  S
C1001      C1052   1.479       .  S
C1002      C1035   1.497       .  S
C1003      C1565   1.490       .  S
C1003      O1456   1.269       .  A
C1004      C1115   1.467       .  S
O1005     Ni1011   1.925       .  S
O1005      C1026   1.270       .  A
O1006     Ni1489   1.895   1_545  S
O1006      C1015   1.264       .  A
O1007      H1030   0.966       .  S
O1007     Ni1241   1.912       .  S
O1007     Ni1023   1.926       .  S
C1008      O1025   1.263       .  A
C1008      O1017   1.265       .  A
O1009     Ni1488   1.927   1_545  S
O1009      C1015   1.271       .  A
O1010      C1012   1.278   1_455  A
Ni1011     O1237   1.912   1_554  S
C1012      C1431   1.469       .  S
C1012      O1022   1.282       .  A
O1013     Ni1719   1.927   1_544  S
O1013      C1019   1.274       .  A
O1014      C1019   1.284   1_565  A
O1016      C1018   1.270       .  A
C1018      O1254   1.273       .  A
H1020      O1021   0.966       .  S
O1021     Ni1029   1.953       .  S
O1021     Ni1028   1.922       .  S
O1022     Ni1023   1.962       .  S
Ni1023     O1027   1.918       .  S
Ni1023     O1025   1.917       .  S
O1024     Ni1029   1.924       .  S
O1024      C1248   1.273       .  A
C1026      O1257   1.267   1_554  A
O1027      C1256   1.267       .  A
Ni1028     O1469   1.927       .  S
Ni1029     O1466   1.895       .  S
Ni1029     O1703   1.927       .  S
C1031      C1492   1.415       .  A
C1031      C1036   1.410       .  A
C1031     Br1038   1.931       .  S
C1032      C1491   1.415       .  A
C1032      C1033   1.411       .  A
C1033      C1034   1.415       .  A
C1033     Br1040   1.924       .  S
C1034      C1495   1.415       .  A
C1034     Br1039   1.929       .  S
C1035      C1494   1.415       .  A
C1035      C1036   1.415       .  A
C1036     Br1037   1.930       .  S
C1041      C1042   1.422       .  A
C1041      C1046   1.402       .  A
C1042      C1043   1.427       .  A
C1043      C1044   1.411       .  A
C1043     Br1050   1.936       .  S
C1044      C1045   1.403       .  A
C1044     Br1049   1.932       .  S
C1045      C1046   1.408       .  A
C1046     Br1047   1.939   1_655  S
C1051      C1052   1.398       .  A
C1051      C1056   1.404       .  A
C1051     Br1058   1.921       .  S
C1052      C1053   1.406       .  A
C1053      C1054   1.408       .  A
C1053     Br1060   1.933       .  S
C1054      C1055   1.414       .  A
C1054     Br1059   1.920       .  S
C1055      C1056   1.415       .  A
C1056     Br1057   1.916       .  S
C1061      C1062   1.405       .  A
C1061      C1066   1.407       .  A
C1061     Br1068   1.922       .  S
C1062      C1063   1.407       .  A
C1063      C1064   1.403       .  A
C1063     Br1070   1.927       .  S
C1064      C1065   1.408       .  A
C1064     Br1069   1.920       .  S
C1065      C1066   1.412       .  A
C1071      C1072   1.411       .  A
C1071      C1076   1.414       .  A
C1072      C1073   1.409       .  A
C1073      C1074   1.412       .  A
C1073     Br1080   1.915       .  S
C1074      C1075   1.405       .  A
C1074     Br1079   1.922       .  S
C1075      C1076   1.413       .  A
C1076     Br1077   1.929       .  S
C1081      C1082   1.409       .  A
C1081      C1086   1.410       .  A
C1081     Br1088   1.928       .  S
C1082      C1083   1.412       .  A
C1083      C1084   1.409       .  A
C1083     Br1090   1.918       .  S
C1084      C1085   1.409       .  A
C1084     Br1089   1.925       .  S
C1085      C1086   1.416       .  A
C1086     Br1087   1.928       .  S
C1091      C1092   1.426       .  A
C1091      C1096   1.417       .  A
C1091     Br1098   1.934       .  S
C1092      C1093   1.426       .  A
C1093      C1094   1.406       .  A
C1093     Br1100   1.937       .  S
C1094      C1095   1.411       .  A
C1094     Br1099   1.940       .  S
C1095      C1096   1.407       .  A
C1096     Br1097   1.930       .  S
C1101      C1102   1.397       .  A
C1101      C1106   1.402       .  A
C1101     Br1108   1.929       .  S
C1102      C1103   1.414       .  A
C1103      C1104   1.409   1_545  A
C1103     Br1110   1.929       .  S
C1104      C1105   1.413   1_565  A
C1104     Br1569   1.929       .  S
C1105      C1106   1.430       .  A
C1105      C1463   1.490   1_545  S
C1106     Br1107   1.939       .  S
Br1109     C1564   1.929       .  S
C1111      C1112   1.411       .  A
C1111      C1116   1.404       .  A
C1111     Br1118   1.930       .  S
C1112      C1113   1.400       .  A
C1113      C1114   1.399       .  A
C1113     Br1120   1.932       .  S
C1114      C1115   1.416       .  A
C1114     Br1119   1.925       .  S
C1115      C1116   1.405       .  A
C1116     Br1117   1.927       .  S
C1121      C1122   1.395       .  A
C1121      C1126   1.397       .  A
C1121     Br1128   1.907       .  S
C1122      C1123   1.419       .  A
C1123      C1124   1.424       .  A
C1123     Br1130   1.924   1_554  S
C1124      C1125   1.413       .  A
C1124     Br1129   1.919       .  S
C1125      C1126   1.406       .  A
C1126     Br1127   1.912       .  S
C1131      C1132   1.412       .  A
C1131      C1136   1.404       .  A
C1131     Br1138   1.933       .  S
C1132      C1133   1.404       .  A
C1133      C1134   1.402       .  A
C1133     Br1140   1.918       .  S
C1134      C1135   1.406       .  A
C1134     Br1139   1.930       .  S
C1135      C1136   1.407       .  A
C1136     Br1137   1.930       .  S
C1141      C1142   1.407       .  A
C1141      C1146   1.410       .  A
C1141     Br1148   1.922       .  S
C1142      C1143   1.418       .  A
C1143      C1144   1.419   1_655  A
C1144      C1145   1.413   1_455  A
C1145      C1146   1.410       .  A
C1146     Br1147   1.922       .  S
N1151      C1155   1.363       .  A
N1151      C1152   1.359       .  A
N1151      C1372   1.454       .  S
C1152      C1153   1.382       .  A
C1152      C1238   1.460       .  S
C1153      C1154   1.365       .  A
C1153      H1156   1.083       .  S
C1154      C1155   1.379       .  A
C1154      H1157   1.082       .  S
C1155      C1362   1.475       .  S
N1158      C1162   1.358       .  A
N1158      C1159   1.357       .  A
N1158      C1352   1.452       .  S
C1159      C1160   1.386       .  A
C1159      C1256   1.466       .  S
C1160      C1161   1.368       .  A
C1160      H1163   1.081       .  S
C1161      C1162   1.375       .  A
C1161      H1164   1.082       .  S
C1162      C1342   1.470       .  S
N1165      C1169   1.359       .  A
N1165      C1166   1.351       .  A
N1165      C1332   1.440       .  S
C1166      C1167   1.379       .  A
C1166      C1245   1.472       .  S
C1167      C1168   1.377       .  A
C1167      H1170   1.081       .  S
C1168      C1169   1.386       .  A
C1168      H1171   1.082       .  S
C1169      C1325   1.492       .  S
O1172     Ni1180   1.914       .  S
O1172      C1182   1.283       .  A
O1173     Ni1180   1.933       .  S
O1173      C1183   1.284       .  A
O1174     Ni1180   1.907       .  S
O1174      C1184   1.277       .  A
O1175     Ni1180   1.925       .  S
O1175      C1185   1.280       .  A
O1176     Ni1181   1.948       .  S
O1176      C1185   1.288       .  A
O1177     Ni1181   1.939       .  S
O1177      C1184   1.286       .  A
O1178     Ni1181   1.915       .  S
O1178      C1183   1.281       .  A
O1179     Ni1181   1.909       .  S
O1179      C1182   1.276       .  A
Ni1180    Ni1181   2.382       .  S
C1182      C1365   1.471       .  S
C1183      C1312   1.490       .  S
C1184      C1322   1.508       .  S
C1185      C1355   1.496       .  S
N1186      C1190   1.368       .  A
N1186      C1187   1.366       .  A
N1186      C1305   1.447       .  S
C1187      C1188   1.378       .  A
C1187      C1249   1.481       .  S
C1188      C1189   1.365       .  A
C1188      H1191   1.076   1_545  S
C1189      C1190   1.376       .  A
C1189      H1192   1.082       .  S
C1190      C1315   1.491       .  S
N1193      C1197   1.362       .  A
N1193      C1194   1.359       .  A
N1193      C1292   1.439       .  S
C1194      C1195   1.387       .  A
C1194      C1248   1.480       .  S
C1195      C1196   1.371       .  A
C1195      H1198   1.081       .  S
C1196      C1197   1.377       .  A
C1196      H1199   1.082       .  S
C1197      C1285   1.486       .  S
N1200      C1204   1.355       .  A
N1200      C1201   1.360       .  A
N1200      C1262   1.451       .  S
C1201      C1202   1.385       .  A
C1201      C1702   1.469       .  S
C1202      C1203   1.372       .  A
C1202      H1205   1.083       .  S
C1203      C1204   1.380       .  A
C1203      H1206   1.082       .  S
C1204      C1275   1.476       .  S
O1207     Ni1215   1.934       .  S
O1208     Ni1215   1.938       .  S
O1208      C1218   1.285       .  A
O1209     Ni1215   1.911       .  S
O1209      C1219   1.279       .  A
O1210     Ni1215   1.908       .  S
O1211     Ni1216   1.916       .  S
O1211      C1220   1.279       .  A
O1212     Ni1216   1.920       .  S
O1213     Ni1216   1.933       .  S
O1214     Ni1216   1.937       .  S
O1214      C1217   1.286       .  A
C1217      C1375   1.495       .  S
C1218      C1302   1.493       .  S
C1219      C1295   1.479       .  S
C1220      C1272   1.495       .  S
O1221     Ni1229   1.902       .  S
O1221      C1231   1.273       .  A
O1222     Ni1229   1.917       .  S
O1222      C1232   1.280       .  A
O1223     Ni1229   1.949       .  S
O1223      C1233   1.290       .  A
O1224     Ni1229   1.944       .  S
O1224      C1234   1.288       .  A
O1225     Ni1230   1.878       .  S
O1225      C1234   1.271       .  A
O1226     Ni1690   1.878   1_545  S
O1226      C1693   1.269   1_545  A
O1227     Ni1230   1.940       .  S
O1227      C1232   1.286       .  A
O1228     Ni1230   1.944       .  S
O1228      C1231   1.290       .  A
Ni1229    Ni1230   2.385       .  S
Ni1230     O1686   1.878       .  S
C1231      C1282   1.479       .  S
C1232      C1265   1.497       .  S
C1233      C1795   1.490       .  S
C1233      O1686   1.269       .  A
C1234      C1345   1.467       .  S
O1235     Ni1241   1.925       .  S
O1235      C1256   1.270       .  A
O1236     Ni1719   1.895   1_545  S
O1236      C1245   1.264       .  A
O1237      H1260   0.966       .  S
O1237     Ni1253   1.926       .  S
C1238      O1255   1.263       .  A
C1238      O1247   1.265       .  A
O1239     Ni1718   1.927   1_545  S
O1239      C1245   1.271       .  A
O1240      C1242   1.278   1_455  A
C1242      C1661   1.469       .  S
C1242      O1252   1.282       .  A
O1243     Ni1489   1.927   1_545  S
O1243      C1249   1.274       .  A
O1244      C1249   1.284   1_565  A
O1246      C1248   1.270       .  A
H1250      O1251   0.966       .  S
O1251     Ni1259   1.953       .  S
O1251     Ni1258   1.922       .  S
O1252     Ni1253   1.962       .  S
Ni1253     O1257   1.918       .  S
Ni1253     O1255   1.917       .  S
O1254     Ni1259   1.924   1_554  S
Ni1258     O1699   1.927       .  S
Ni1259     O1696   1.895       .  S
Ni1259     O1473   1.927   1_556  S
C1261      C1722   1.415       .  A
C1261      C1266   1.410       .  A
C1261     Br1268   1.931       .  S
C1262      C1721   1.415       .  A
C1262      C1263   1.411       .  A
C1263      C1264   1.415       .  A
C1263     Br1270   1.924       .  S
C1264      C1725   1.415       .  A
C1264     Br1269   1.929       .  S
C1265      C1724   1.415       .  A
C1265      C1266   1.415       .  A
C1266     Br1267   1.930       .  S
C1271      C1272   1.422       .  A
C1271      C1276   1.402       .  A
C1272      C1273   1.427       .  A
C1273      C1274   1.411       .  A
C1273     Br1280   1.936       .  S
C1274      C1275   1.403       .  A
C1274     Br1279   1.932       .  S
C1275      C1276   1.408       .  A
C1276     Br1277   1.939   1_655  S
C1281      C1282   1.398       .  A
C1281      C1286   1.404       .  A
C1281     Br1288   1.921       .  S
C1282      C1283   1.406       .  A
C1283      C1284   1.408       .  A
C1283     Br1290   1.933       .  S
C1284      C1285   1.414       .  A
C1284     Br1289   1.920       .  S
C1285      C1286   1.415       .  A
C1286     Br1287   1.916       .  S
C1291      C1292   1.405       .  A
C1291      C1296   1.407       .  A
C1291     Br1298   1.922       .  S
C1292      C1293   1.407       .  A
C1293      C1294   1.403       .  A
C1293     Br1300   1.927       .  S
C1294      C1295   1.408       .  A
C1294     Br1299   1.920       .  S
C1295      C1296   1.412       .  A
C1301      C1302   1.411       .  A
C1301      C1306   1.414       .  A
C1302      C1303   1.409       .  A
C1303      C1304   1.412       .  A
C1303     Br1310   1.915       .  S
C1304      C1305   1.405       .  A
C1304     Br1309   1.922       .  S
C1305      C1306   1.413       .  A
C1306     Br1307   1.929       .  S
C1311      C1312   1.409       .  A
C1311      C1316   1.410       .  A
C1311     Br1318   1.928       .  S
C1312      C1313   1.412       .  A
C1313      C1314   1.409       .  A
C1313     Br1320   1.918       .  S
C1314      C1315   1.409       .  A
C1314     Br1319   1.925       .  S
C1315      C1316   1.416       .  A
C1316     Br1317   1.928       .  S
C1321      C1322   1.426       .  A
C1321      C1326   1.417       .  A
C1321     Br1328   1.934       .  S
C1322      C1323   1.426       .  A
C1323      C1324   1.406       .  A
C1323     Br1330   1.937       .  S
C1324      C1325   1.411       .  A
C1324     Br1329   1.940       .  S
C1325      C1326   1.407       .  A
C1326     Br1327   1.930       .  S
C1331      C1332   1.397       .  A
C1331      C1336   1.402       .  A
C1331     Br1338   1.929       .  S
C1332      C1333   1.414       .  A
C1333      C1334   1.409   1_545  A
C1333     Br1340   1.929       .  S
C1334      C1335   1.413   1_565  A
C1334     Br1799   1.929       .  S
C1335      C1336   1.430       .  A
C1335      C1693   1.490   1_545  S
C1336     Br1337   1.939       .  S
Br1339     C1794   1.929       .  S
C1341      C1342   1.411       .  A
C1341      C1346   1.404       .  A
C1341     Br1348   1.930       .  S
C1342      C1343   1.400       .  A
C1343      C1344   1.399       .  A
C1343     Br1350   1.932       .  S
C1344      C1345   1.416       .  A
C1344     Br1349   1.925       .  S
C1345      C1346   1.405       .  A
C1346     Br1347   1.927       .  S
C1351      C1352   1.395       .  A
C1351      C1356   1.397       .  A
C1351     Br1358   1.907       .  S
C1352      C1353   1.419       .  A
C1353      C1354   1.424       .  A
C1353     Br1360   1.924       .  S
C1354      C1355   1.413       .  A
C1354     Br1359   1.919       .  S
C1355      C1356   1.406       .  A
C1356     Br1357   1.912       .  S
C1361      C1362   1.412       .  A
C1361      C1366   1.404       .  A
C1361     Br1368   1.933       .  S
C1362      C1363   1.404       .  A
C1363      C1364   1.402       .  A
C1363     Br1370   1.918       .  S
C1364      C1365   1.406       .  A
C1364     Br1369   1.930       .  S
C1365      C1366   1.407       .  A
C1366     Br1367   1.930       .  S
C1371      C1372   1.407       .  A
C1371      C1376   1.410       .  A
C1371     Br1378   1.922       .  S
C1372      C1373   1.418       .  A
C1373      C1374   1.419   1_655  A
C1374      C1375   1.413   1_455  A
C1375      C1376   1.410       .  A
C1376     Br1377   1.922       .  S
N1381      C1385   1.363       .  A
N1381      C1382   1.359       .  A
N1381      C1602   1.454       .  S
C1382      C1383   1.382       .  A
C1382      C1468   1.460       .  S
C1383      C1384   1.365       .  A
C1383      H1386   1.083       .  S
C1384      C1385   1.379       .  A
C1384      H1387   1.082       .  S
C1385      C1592   1.475       .  S
N1388      C1392   1.358       .  A
N1388      C1389   1.357       .  A
N1388      C1582   1.452       .  S
C1389      C1390   1.386       .  A
C1389      C1486   1.466       .  S
C1390      C1391   1.368       .  A
C1390      H1393   1.081   1_554  S
C1391      C1392   1.375       .  A
C1391      H1394   1.082       .  S
C1392      C1572   1.470       .  S
N1395      C1399   1.359       .  A
N1395      C1396   1.351       .  A
N1395      C1562   1.440       .  S
C1396      C1397   1.379       .  A
C1396      C1475   1.472       .  S
C1397      C1398   1.377       .  A
C1397      H1400   1.081       .  S
C1398      C1399   1.386       .  A
C1398      H1401   1.082       .  S
C1399      C1555   1.492       .  S
O1402     Ni1410   1.914       .  S
O1402      C1412   1.283       .  A
O1403     Ni1410   1.933       .  S
O1403      C1413   1.284       .  A
O1404     Ni1410   1.907       .  S
O1404      C1414   1.277       .  A
O1405     Ni1410   1.925       .  S
O1405      C1415   1.280       .  A
O1406     Ni1411   1.948       .  S
O1406      C1415   1.288       .  A
O1407     Ni1411   1.939       .  S
O1407      C1414   1.286       .  A
O1408     Ni1411   1.915       .  S
O1408      C1413   1.281       .  A
O1409     Ni1411   1.909       .  S
O1409      C1412   1.276       .  A
Ni1410    Ni1411   2.382       .  S
C1412      C1595   1.471       .  S
C1413      C1542   1.490       .  S
C1414      C1552   1.508       .  S
C1415      C1585   1.496       .  S
N1416      C1420   1.368       .  A
N1416      C1417   1.366       .  A
N1416      C1535   1.447       .  S
C1417      C1418   1.378       .  A
C1417      C1479   1.481       .  S
C1418      C1419   1.365       .  A
C1418      H1421   1.076       .  S
C1419      C1420   1.376       .  A
C1419      H1422   1.082       .  S
C1420      C1545   1.491       .  S
N1423      C1427   1.362       .  A
N1423      C1424   1.359       .  A
N1423      C1522   1.439       .  S
C1424      C1425   1.387       .  A
C1424      C1478   1.480       .  S
C1425      C1426   1.371       .  A
C1425      H1428   1.081       .  S
C1426      C1427   1.377       .  A
C1426      H1429   1.082       .  S
C1427      C1515   1.486       .  S
N1430      C1434   1.355       .  A
N1430      C1431   1.360       .  A
N1430      C1492   1.451       .  S
C1431      C1432   1.385       .  A
C1432      C1433   1.372       .  A
C1432      H1435   1.083       .  S
C1433      C1434   1.380       .  A
C1433      H1436   1.082       .  S
C1434      C1505   1.476       .  S
O1437     Ni1445   1.934       .  S
O1438     Ni1445   1.938       .  S
O1438      C1448   1.285       .  A
O1439     Ni1445   1.911       .  S
O1439      C1449   1.279       .  A
O1440     Ni1445   1.908       .  S
O1441     Ni1446   1.916       .  S
O1441      C1450   1.279       .  A
O1442     Ni1446   1.920       .  S
O1443     Ni1446   1.933       .  S
O1444     Ni1446   1.937       .  S
O1444      C1447   1.286       .  A
C1447      C1605   1.495       .  S
C1448      C1532   1.493       .  S
C1449      C1525   1.479       .  S
C1450      C1502   1.495       .  S
O1451     Ni1459   1.902       .  S
O1451      C1461   1.273       .  A
O1452     Ni1459   1.917       .  S
O1452      C1462   1.280       .  A
O1453     Ni1459   1.949       .  S
O1453      C1463   1.290       .  A
O1454     Ni1459   1.944       .  S
O1454      C1464   1.288       .  A
O1455     Ni1460   1.878       .  S
O1455      C1464   1.271       .  A
O1457     Ni1460   1.940   1_545  S
O1457      C1462   1.286   1_545  A
O1458     Ni1460   1.944       .  S
O1458      C1461   1.290       .  A
Ni1459    Ni1460   2.385       .  S
C1461      C1512   1.479       .  S
C1462      C1495   1.497   1_565  S
C1464      C1575   1.467       .  S
O1465     Ni1471   1.925       .  S
O1465      C1486   1.270       .  A
O1466      C1475   1.264       .  A
O1467      H1490   0.966       .  S
O1467     Ni1701   1.912       .  S
O1467     Ni1483   1.926       .  S
C1468      O1485   1.263       .  A
C1468      O1477   1.265       .  A
O1469      C1475   1.271       .  A
O1470      C1472   1.278   1_455  A
Ni1471     O1697   1.912   1_554  S
C1472      O1482   1.282   1_545  A
O1473      C1479   1.274       .  A
O1474      C1479   1.284       .  A
O1476      C1478   1.270       .  A
C1478      O1714   1.273       .  A
H1480      O1481   0.966       .  S
O1481     Ni1489   1.953       .  S
O1481     Ni1488   1.922       .  S
O1482     Ni1483   1.962       .  S
Ni1483     O1487   1.918       .  S
Ni1483     O1485   1.917       .  S
O1484     Ni1489   1.924       .  S
O1484      C1708   1.273       .  A
C1486      O1717   1.267   1_554  A
O1487      C1716   1.267       .  A
C1491      C1496   1.410   1_545  A
C1491     Br1498   1.931       .  S
C1492      C1493   1.411       .  A
C1493      C1494   1.415       .  A
C1493     Br1500   1.924       .  S
C1494     Br1499   1.929       .  S
C1495      C1496   1.415   1_545  A
C1496     Br1497   1.930       .  S
C1501      C1502   1.422       .  A
C1501      C1506   1.402       .  A
C1502      C1503   1.427       .  A
C1503      C1504   1.411       .  A
C1503     Br1510   1.936       .  S
C1504      C1505   1.403       .  A
C1504     Br1509   1.932       .  S
C1505      C1506   1.408       .  A
C1506     Br1507   1.939   1_655  S
C1511      C1512   1.398       .  A
C1511      C1516   1.404       .  A
C1511     Br1518   1.921       .  S
C1512      C1513   1.406       .  A
C1513      C1514   1.408       .  A
C1513     Br1520   1.933       .  S
C1514      C1515   1.414       .  A
C1514     Br1519   1.920       .  S
C1515      C1516   1.415       .  A
C1516     Br1517   1.916       .  S
C1521      C1522   1.405       .  A
C1521      C1526   1.407       .  A
C1521     Br1528   1.922       .  S
C1522      C1523   1.407       .  A
C1523      C1524   1.403       .  A
C1523     Br1530   1.927       .  S
C1524      C1525   1.408       .  A
C1524     Br1529   1.920       .  S
C1525      C1526   1.412       .  A
C1531      C1532   1.411       .  A
C1531      C1536   1.414       .  A
C1532      C1533   1.409       .  A
C1533      C1534   1.412       .  A
C1533     Br1540   1.915       .  S
C1534      C1535   1.405       .  A
C1534     Br1539   1.922       .  S
C1535      C1536   1.413       .  A
C1536     Br1537   1.929       .  S
C1541      C1542   1.409       .  A
C1541      C1546   1.410       .  A
C1541     Br1548   1.928       .  S
C1542      C1543   1.412       .  A
C1543      C1544   1.409       .  A
C1543     Br1550   1.918       .  S
C1544      C1545   1.409       .  A
C1544     Br1549   1.925       .  S
C1545      C1546   1.416       .  A
C1546     Br1547   1.928       .  S
C1551      C1552   1.426       .  A
C1551      C1556   1.417       .  A
C1551     Br1558   1.934       .  S
C1552      C1553   1.426       .  A
C1553      C1554   1.406       .  A
C1553     Br1560   1.937       .  S
C1554      C1555   1.411       .  A
C1554     Br1559   1.940       .  S
C1555      C1556   1.407       .  A
C1556     Br1557   1.930       .  S
C1561      C1562   1.397       .  A
C1561      C1566   1.402       .  A
C1561     Br1568   1.929       .  S
C1562      C1563   1.414       .  A
C1563      C1564   1.409       .  A
C1563     Br1570   1.929       .  S
C1564      C1565   1.413       .  A
C1565      C1566   1.430       .  A
C1566     Br1567   1.939       .  S
C1571      C1572   1.411       .  A
C1571      C1576   1.404       .  A
C1571     Br1578   1.930       .  S
C1572      C1573   1.400       .  A
C1573      C1574   1.399       .  A
C1573     Br1580   1.932       .  S
C1574      C1575   1.416       .  A
C1574     Br1579   1.925       .  S
C1575      C1576   1.405       .  A
C1576     Br1577   1.927       .  S
C1581      C1582   1.395       .  A
C1581      C1586   1.397       .  A
C1581     Br1588   1.907       .  S
C1582      C1583   1.419       .  A
C1583      C1584   1.424       .  A
C1583     Br1590   1.924   1_554  S
C1584      C1585   1.413       .  A
C1584     Br1589   1.919       .  S
C1585      C1586   1.406       .  A
C1586     Br1587   1.912       .  S
C1591      C1592   1.412       .  A
C1591      C1596   1.404       .  A
C1591     Br1598   1.933       .  S
C1592      C1593   1.404       .  A
C1593      C1594   1.402       .  A
C1593     Br1600   1.918       .  S
C1594      C1595   1.406       .  A
C1594     Br1599   1.930       .  S
C1595      C1596   1.407       .  A
C1596     Br1597   1.930       .  S
C1601      C1602   1.407       .  A
C1601      C1606   1.410       .  A
C1601     Br1608   1.922       .  S
C1602      C1603   1.418       .  A
C1603      C1604   1.419   1_655  A
C1604      C1605   1.413   1_455  A
C1605      C1606   1.410       .  A
C1606     Br1607   1.922       .  S
N1611      C1615   1.363       .  A
N1611      C1612   1.359       .  A
N1611      C1832   1.454       .  S
C1612      C1613   1.382       .  A
C1612      C1698   1.460       .  S
C1613      C1614   1.365       .  A
C1613      H1616   1.083       .  S
C1614      C1615   1.379       .  A
C1614      H1617   1.082       .  S
C1615      C1822   1.475       .  S
N1618      C1622   1.358       .  A
N1618      C1619   1.357       .  A
N1618      C1812   1.452       .  S
C1619      C1620   1.386       .  A
C1619      C1716   1.466       .  S
C1620      C1621   1.368       .  A
C1620      H1623   1.081       .  S
C1621      C1622   1.375       .  A
C1621      H1624   1.082       .  S
C1622      C1802   1.470       .  S
N1625      C1629   1.359       .  A
N1625      C1626   1.351       .  A
N1625      C1792   1.440       .  S
C1626      C1627   1.379       .  A
C1626      C1705   1.472       .  S
C1627      C1628   1.377       .  A
C1627      H1630   1.081       .  S
C1628      C1629   1.386       .  A
C1628      H1631   1.082       .  S
C1629      C1785   1.492       .  S
O1632     Ni1640   1.914       .  S
O1632      C1642   1.283       .  A
O1633     Ni1640   1.933       .  S
O1633      C1643   1.284       .  A
O1634     Ni1640   1.907       .  S
O1634      C1644   1.277       .  A
O1635     Ni1640   1.925       .  S
O1635      C1645   1.280       .  A
O1636     Ni1641   1.948       .  S
O1636      C1645   1.288       .  A
O1637     Ni1641   1.939       .  S
O1637      C1644   1.286       .  A
O1638     Ni1641   1.915       .  S
O1638      C1643   1.281       .  A
O1639     Ni1641   1.909       .  S
O1639      C1642   1.276       .  A
Ni1640    Ni1641   2.382       .  S
C1642      C1825   1.471       .  S
C1643      C1772   1.490       .  S
C1644      C1782   1.508       .  S
C1645      C1815   1.496       .  S
N1646      C1650   1.368       .  A
N1646      C1647   1.366       .  A
N1646      C1765   1.447       .  S
C1647      C1648   1.378       .  A
C1647      C1709   1.481       .  S
C1648      C1649   1.365       .  A
C1648      H1651   1.076       .  S
C1649      C1650   1.376       .  A
C1649      H1652   1.082       .  S
C1650      C1775   1.491       .  S
N1653      C1657   1.362       .  A
N1653      C1654   1.359       .  A
N1653      C1752   1.439       .  S
C1654      C1655   1.387       .  A
C1654      C1708   1.480       .  S
C1655      C1656   1.371       .  A
C1655      H1658   1.081       .  S
C1656      C1657   1.377       .  A
C1656      H1659   1.082       .  S
C1657      C1745   1.486       .  S
N1660      C1664   1.355       .  A
N1660      C1661   1.360       .  A
N1660      C1722   1.451       .  S
C1661      C1662   1.385       .  A
C1662      C1663   1.372       .  A
C1662      H1665   1.083       .  S
C1663      C1664   1.380       .  A
C1663      H1666   1.082       .  S
C1664      C1735   1.476       .  S
O1667     Ni1675   1.934       .  S
O1668     Ni1675   1.938       .  S
O1668      C1678   1.285       .  A
O1669     Ni1675   1.911       .  S
O1669      C1679   1.279       .  A
O1670     Ni1675   1.908       .  S
O1671     Ni1676   1.916       .  S
O1671      C1680   1.279       .  A
O1672     Ni1676   1.920       .  S
O1673     Ni1676   1.933       .  S
O1674     Ni1676   1.937       .  S
O1674      C1677   1.286       .  A
C1677      C1835   1.495       .  S
C1678      C1762   1.493       .  S
C1679      C1755   1.479       .  S
C1680      C1732   1.495       .  S
O1681     Ni1689   1.902       .  S
O1681      C1691   1.273       .  A
O1682     Ni1689   1.917       .  S
O1682      C1692   1.280       .  A
O1683     Ni1689   1.949       .  S
O1683      C1693   1.290       .  A
O1684     Ni1689   1.944       .  S
O1684      C1694   1.288       .  A
O1685     Ni1690   1.878       .  S
O1685      C1694   1.271       .  A
O1687     Ni1690   1.940   1_545  S
O1687      C1692   1.286   1_545  A
O1688     Ni1690   1.944       .  S
O1688      C1691   1.290       .  A
Ni1689    Ni1690   2.385       .  S
C1691      C1742   1.479       .  S
C1692      C1725   1.497   1_565  S
C1694      C1805   1.467       .  S
O1695     Ni1701   1.925       .  S
O1695      C1716   1.270       .  A
O1696      C1705   1.264       .  A
O1697      H1720   0.966       .  S
O1697     Ni1713   1.926       .  S
C1698      O1715   1.263       .  A
C1698      O1707   1.265       .  A
O1699      C1705   1.271       .  A
O1700      C1702   1.278   1_455  A
C1702      O1712   1.282   1_545  A
O1703      C1709   1.274       .  A
O1704      C1709   1.284       .  A
O1706      C1708   1.270       .  A
H1710      O1711   0.966       .  S
O1711     Ni1719   1.953       .  S
O1711     Ni1718   1.922       .  S
O1712     Ni1713   1.962       .  S
Ni1713     O1717   1.918       .  S
Ni1713     O1715   1.917       .  S
O1714     Ni1719   1.924   1_554  S
C1721      C1726   1.410   1_545  A
C1721     Br1728   1.931       .  S
C1722      C1723   1.411       .  A
C1723      C1724   1.415       .  A
C1723     Br1730   1.924       .  S
C1724     Br1729   1.929       .  S
C1725      C1726   1.415   1_545  A
C1726     Br1727   1.930       .  S
C1731      C1732   1.422       .  A
C1731      C1736   1.402       .  A
C1732      C1733   1.427       .  A
C1733      C1734   1.411       .  A
C1733     Br1740   1.936       .  S
C1734      C1735   1.403       .  A
C1734     Br1739   1.932       .  S
C1735      C1736   1.408       .  A
C1736     Br1737   1.939   1_655  S
C1741      C1742   1.398       .  A
C1741      C1746   1.404       .  A
C1741     Br1748   1.921       .  S
C1742      C1743   1.406       .  A
C1743      C1744   1.408       .  A
C1743     Br1750   1.933       .  S
C1744      C1745   1.414       .  A
C1744     Br1749   1.920       .  S
C1745      C1746   1.415       .  A
C1746     Br1747   1.916       .  S
C1751      C1752   1.405       .  A
C1751      C1756   1.407       .  A
C1751     Br1758   1.922       .  S
C1752      C1753   1.407       .  A
C1753      C1754   1.403       .  A
C1753     Br1760   1.927       .  S
C1754      C1755   1.408       .  A
C1754     Br1759   1.920       .  S
C1755      C1756   1.412       .  A
C1761      C1762   1.411       .  A
C1761      C1766   1.414       .  A
C1762      C1763   1.409       .  A
C1763      C1764   1.412       .  A
C1763     Br1770   1.915       .  S
C1764      C1765   1.405       .  A
C1764     Br1769   1.922       .  S
C1765      C1766   1.413       .  A
C1766     Br1767   1.929       .  S
C1771      C1772   1.409       .  A
C1771      C1776   1.410       .  A
C1771     Br1778   1.928       .  S
C1772      C1773   1.412       .  A
C1773      C1774   1.409       .  A
C1773     Br1780   1.918       .  S
C1774      C1775   1.409       .  A
C1774     Br1779   1.925       .  S
C1775      C1776   1.416       .  A
C1776     Br1777   1.928       .  S
C1781      C1782   1.426       .  A
C1781      C1786   1.417       .  A
C1781     Br1788   1.934       .  S
C1782      C1783   1.426       .  A
C1783      C1784   1.406       .  A
C1783     Br1790   1.937       .  S
C1784      C1785   1.411       .  A
C1784     Br1789   1.940       .  S
C1785      C1786   1.407       .  A
C1786     Br1787   1.930       .  S
C1791      C1792   1.397       .  A
C1791      C1796   1.402       .  A
C1791     Br1798   1.929       .  S
C1792      C1793   1.414       .  A
C1793      C1794   1.409       .  A
C1793     Br1800   1.929       .  S
C1794      C1795   1.413       .  A
C1795      C1796   1.430       .  A
C1796     Br1797   1.939       .  S
C1801      C1802   1.411       .  A
C1801      C1806   1.404       .  A
C1801     Br1808   1.930       .  S
C1802      C1803   1.400       .  A
C1803      C1804   1.399       .  A
C1803     Br1810   1.932       .  S
C1804      C1805   1.416       .  A
C1804     Br1809   1.925       .  S
C1805      C1806   1.405       .  A
C1806     Br1807   1.927       .  S
C1811      C1812   1.395       .  A
C1811      C1816   1.397       .  A
C1811     Br1818   1.907       .  S
C1812      C1813   1.419       .  A
C1813      C1814   1.424       .  A
C1813     Br1820   1.924       .  S
C1814      C1815   1.413       .  A
C1814     Br1819   1.919       .  S
C1815      C1816   1.406       .  A
C1816     Br1817   1.912       .  S
C1821      C1822   1.412       .  A
C1821      C1826   1.404       .  A
C1821     Br1828   1.933       .  S
C1822      C1823   1.404       .  A
C1823      C1824   1.402       .  A
C1823     Br1830   1.918       .  S
C1824      C1825   1.406       .  A
C1824     Br1829   1.930       .  S
C1825      C1826   1.407       .  A
C1826     Br1827   1.930       .  S
C1831      C1832   1.407       .  A
C1831      C1836   1.410       .  A
C1831     Br1838   1.922       .  S
C1832      C1833   1.418       .  A
C1833      C1834   1.419   1_655  A
C1834      C1835   1.413   1_455  A
C1835      C1836   1.410       .  A
C1836     Br1837   1.922       .  S
