geometry optimzed in LAMMPS
_audit_creation_date              2020-11-30 
_audit_creation_method            'lammps2cif' 
_symmetry_space_group_name_H-M    'P1' 
_symmetry_Int_Tables_number       1 
_symmetry_cell_setting            triclinic 
loop_ 
_symmetry_equiv_pos_as_xyz 
  x,y,z 
_cell_length_a                    36.55108593 
_cell_length_b                    36.54104950374307 
_cell_length_c                    67.01037023163624 
_cell_angle_alpha                 89.49730821895501 
_cell_angle_beta                  89.86573176027622 
_cell_angle_gamma                 90.01414619463483 
loop_ 
_atom_site_label 
_atom_site_type_symbol 
_atom_site_fract_x 
_atom_site_fract_y 
_atom_site_fract_z 
_atom_site_charge 
O1          O  0.00758793  0.47751312  0.65755252    -0.73200
O2          O  0.00934767  0.97269074  0.71658334    -0.74100
O3          O  0.97298622  0.44056216  0.69029274    -0.62800
O4          O  0.04156971  0.01641176  0.68642558    -0.71200
O5          O  0.51197833  0.06387630  0.68318982    -0.70700
O6          O  0.43007259  0.48010920  0.68937057    -0.62000
O7          O  0.47841847  0.02703215  0.71537737    -0.74500
O8          O  0.46571163  0.51832992  0.65815898    -0.73300
Cu9        Cu  0.01123287  0.47895061  0.68787856     1.04600
Cu10       Cu  0.47575461  0.02348369  0.68549285     1.04300
C11         C  0.49030185  0.50029560  0.64896848     0.93000
C12         C  0.98605137  0.99210467  0.72604978     0.92200
C13         C  0.93867664  0.44676255  0.69130194     0.84300
C14         C  0.54662514  0.05949331  0.68409210     0.90600
O15         O  0.50498635  0.19273046  0.68830187    -0.73200
O16         O  0.43263906  0.27482247  0.69022849    -0.74100
O17         O  0.46761316  0.23509319  0.65931191    -0.62800
O18         O  0.46931288  0.23126322  0.71943441    -0.71200
O19         O  0.00395755  0.26079355  0.71996440    -0.70700
O20         O  0.00053537  0.26576492  0.66001854    -0.62000
O21         O  0.96950178  0.30757380  0.69149479    -0.74500
O22         O  0.03476939  0.22091317  0.68853786    -0.73300
Cu23       Cu  0.46697563  0.23206601  0.68937328     1.04600
Cu24       Cu  0.00370497  0.26526531  0.68999893     1.04300
C25         C  0.53949441  0.19868411  0.68794875     0.93000
C26         C  0.44619247  0.30694354  0.69058999     0.92200
C27         C  0.49206792  0.25364828  0.65009856     0.84300
C28         C  0.97947407  0.24255088  0.72939316     0.90600
O29         O  0.26355615  0.43680535  0.69051229    -0.73200
O30         O  0.19714932  0.01627892  0.68829487    -0.74100
O31         O  0.22867180  0.47618090  0.65871301    -0.62800
O32         O  0.22818815  0.48179270  0.71896999    -0.71200
O33         O  0.27524145  0.52002824  0.71758148    -0.70700
O34         O  0.27868003  0.51071053  0.65790732    -0.62000
O35         O  0.24497196  0.05358221  0.68495204    -0.74500
O36         O  0.31208903  0.47357509  0.69042217    -0.73300
Cu37       Cu  0.22690188  0.47711020  0.68891621     1.04600
Cu38       Cu  0.27866127  0.51650456  0.68768597     1.04300
C39         C  0.29815080  0.44166944  0.69112476     0.93000
C40         C  0.21055031  0.04828193  0.68663317     0.92200
C41         C  0.25348569  0.49323938  0.64886338     0.84300
C42         C  0.25128538  0.50244081  0.72777073     0.90600
O43         O  0.20339251  0.21951479  0.68807132    -0.73200
O44         O  0.27094115  0.30349246  0.69205063    -0.74100
O45         O  0.24167214  0.26297612  0.65984963    -0.62800
O46         O  0.23365258  0.25796159  0.72009631    -0.71200
O47         O  0.28340095  0.22307593  0.72059692    -0.70700
O48         O  0.29130768  0.22797841  0.66101741    -0.62000
O49         O  0.32080449  0.26857602  0.69282785    -0.74500
O50         O  0.25236989  0.18333105  0.68895890    -0.73300
Cu51       Cu  0.23584944  0.26250080  0.68997012     1.04600
Cu52       Cu  0.28862469  0.22434385  0.69088503     1.04300
C53         C  0.21766207  0.18786405  0.68818540     0.93000
C54         C  0.30561756  0.29995972  0.69292006     0.92200
C55         C  0.26768322  0.24603028  0.65100302     0.84300
C56         C  0.25729373  0.23902084  0.72974242     0.90600
O57         O  0.49806108  0.05994913  0.81912992    -0.73200
O58         O  0.50183852  0.07038728  0.87918360    -0.74100
O59         O  0.03589028  0.08361532  0.84489256    -0.62800
O60         O  0.45839929  0.02993517  0.85163636    -0.71200
O61         O  0.47532602  0.48159511  0.85491541    -0.70700
O62         O  0.06360018  0.55491526  0.85149631    -0.62000
O63         O  0.51625033  0.52167022  0.88297813    -0.74500
O64         O  0.51795168  0.51018065  0.82369005    -0.73300
Cu65       Cu  0.49866298  0.06689004  0.84906770     1.04600
Cu66       Cu  0.51853696  0.51416720  0.85347369     1.04300
C67         C  0.49901460  0.53185503  0.81279347     0.93000
C68         C  0.49959527  0.54850107  0.89107757     0.92200
C69         C  0.05984076  0.58954205  0.85007385     0.84300
C70         C  0.44345837  0.49533702  0.85397033     0.90600
O71         O  0.97248279  0.23993578  0.82652155    -0.73200
O72         O  0.98080649  0.22449028  0.88581996    -0.74100
O73         O  0.01884189  0.26718285  0.85704601    -0.62800
O74         O  0.44113196  0.20197067  0.85391651    -0.71200
O75         O  0.47911614  0.15561691  0.84826180    -0.70700
O76         O  0.05526282  0.21892370  0.85331971    -0.62000
O77         O  0.01487198  0.17500405  0.88105106    -0.74500
O78         O  0.01145251  0.19432100  0.82148918    -0.73300
Cu79       Cu  0.97544611  0.23386485  0.85636034     1.04600
Cu80       Cu  0.01469926  0.18296361  0.85104571     1.04300
C81         C  0.99086416  0.21980997  0.81464641     0.93000
C82         C  0.99841586  0.19702765  0.89278912     0.92200
C83         C  0.05066714  0.25329754  0.85553399     0.84300
C84         C  0.44686815  0.16813793  0.85049133     0.90600
O85         O  0.22940842  0.49476284  0.82460348    -0.73200
O86         O  0.23433209  0.49698783  0.88457000    -0.74100
O87         O  0.19099448  0.53317533  0.85514148    -0.62800
O88         O  0.27336364  0.46009542  0.85422417    -0.71200
O89         O  0.32643366  0.01331698  0.85132268    -0.70700
O90         O  0.24043636  0.07853629  0.84697215    -0.62000
O91         O  0.28326317  0.05201145  0.87901921    -0.74500
O92         O  0.28325485  0.03887168  0.81951493    -0.73300
Cu93       Cu  0.23043540  0.49462472  0.85467770     1.04600
Cu94       Cu  0.28468825  0.04731058  0.84913127     1.04300
C95         C  0.24898564  0.51657973  0.81404039     0.93000
C96         C  0.25270634  0.52229008  0.89289061     0.92200
C97         C  0.19732943  0.56756631  0.85350112     0.84300
C98         C  0.30537994  0.47397913  0.85377717     0.90600
O99         O  0.23041367  0.19348228  0.82325589    -0.73200
O100        O  0.23319388  0.18209195  0.88353314    -0.74100
O101        O  0.18889634  0.22047066  0.85558772    -0.62800
O102        O  0.27455974  0.15393300  0.85101881    -0.71200
O103        O  0.31009269  0.20288084  0.85454026    -0.70700
O104        O  0.22404475  0.27019829  0.85576737    -0.62000
O105        O  0.26581060  0.23331879  0.88485303    -0.74500
O106        O  0.26894632  0.24026843  0.82556606    -0.73300
Cu107      Cu  0.23037786  0.18573921  0.85329525     1.04600
Cu108      Cu  0.26858137  0.23825524  0.85527208     1.04300
C109        C  0.24990980  0.21854006  0.81501222     0.93000
C110        C  0.24938080  0.20688053  0.89360975     0.92200
C111        C  0.19257835  0.25519100  0.85607789     0.84300
C112        C  0.30612413  0.16843638  0.85218019     0.90600
O113        O  0.44785486  0.51372988  0.38215908    -0.73200
O114        O  0.45288932  0.51299299  0.32216258    -0.74100
O115        O  0.41977312  0.46735742  0.35181249    -0.62800
O116        O  0.50760886  0.06975647  0.35232297    -0.71200
O117        O  0.04565970  0.02211968  0.35474489    -0.70700
O118        O  0.96725862  0.43363620  0.35139190    -0.62000
O119        O  0.99911165  0.48043626  0.32231173    -0.74500
O120        O  0.99327044  0.47978469  0.38220937    -0.73300
Cu121      Cu  0.44861394  0.51415589  0.35210578     1.04600
Cu122      Cu  0.99796790  0.47828355  0.35233749     1.04300
C123        C  0.47453628  0.50018372  0.39199961     0.93000
C124        C  0.47889404  0.49660350  0.31308142     0.92200
C125        C  0.43704192  0.43710510  0.35293895     0.84300
C126        C  0.54155202  0.06139164  0.35364390     0.90600
O127        O  0.06091658  0.22219971  0.35534701    -0.73200
O128        O  0.98482860  0.30008930  0.35052166    -0.74100
O129        O  0.02197963  0.26555173  0.38293634    -0.62800
O130        O  0.02393668  0.25652915  0.32305346    -0.71200
O131        O  0.48663994  0.21890766  0.32467332    -0.70700
O132        O  0.48409114  0.23296268  0.38398464    -0.62000
O133        O  0.44626925  0.26401044  0.35153588    -0.74500
O134        O  0.52345947  0.18838175  0.35751481    -0.73300
Cu135      Cu  0.02439826  0.26270064  0.35288573     1.04600
Cu136      Cu  0.48364374  0.22455902  0.35449211     1.04300
C137        C  0.55751468  0.19582076  0.35615375     0.93000
C138        C  0.45699007  0.29713536  0.35086160     0.92200
C139        C  0.50755357  0.25358398  0.39242172     0.84300
C140        C  0.50816714  0.23856738  0.31400902     0.90600
O141        O  0.26285363  0.43873660  0.35275167    -0.73200
O142        O  0.33392069  0.01973727  0.34845883    -0.74100
O143        O  0.30190645  0.48174143  0.38081279    -0.62800
O144        O  0.28837774  0.48322658  0.32083165    -0.71200
O145        O  0.24061205  0.52014821  0.32452526    -0.70700
O146        O  0.25038521  0.51346893  0.38379667    -0.62000
O147        O  0.28868437  0.05982083  0.35238500    -0.74500
O148        O  0.21251740  0.47277555  0.35473559    -0.73300
Cu149      Cu  0.29692553  0.48086657  0.35066345     1.04600
Cu150      Cu  0.24373441  0.51775146  0.35428358     1.04300
C151        C  0.22812947  0.44165675  0.35408759     0.93000
C152        C  0.32270875  0.05241231  0.35067538     0.92200
C153        C  0.27786892  0.49743155  0.39169655     0.84300
C154        C  0.26299049  0.50308553  0.31329841     0.90600
O155        O  0.34120090  0.22258595  0.35220633    -0.73200
O156        O  0.27020896  0.30524022  0.35263506    -0.74100
O157        O  0.30937827  0.26605251  0.38252114    -0.62800
O158        O  0.30166223  0.26095931  0.32247429    -0.71200
O159        O  0.25557073  0.22190156  0.32589320    -0.70700
O160        O  0.25984857  0.23109793  0.38531942    -0.62000
O161        O  0.22220323  0.26791083  0.35464283    -0.74500
O162        O  0.29348395  0.18556191  0.35671123    -0.73300
Cu163      Cu  0.30720252  0.26526750  0.35235161     1.04600
Cu164      Cu  0.25620899  0.22523282  0.35573083     1.04300
C165        C  0.32785786  0.19066327  0.35450382     0.93000
C166        C  0.23570165  0.29999266  0.35371112     0.92200
C167        C  0.28552753  0.24947791  0.39330423     0.84300
C168        C  0.27781234  0.23974259  0.31473766     0.90600
O169        O  0.00693165  0.50522478  0.48029753    -0.73200
O170        O  0.99830186  0.49832998  0.42135051    -0.74100
O171        O  0.99281630  0.05839677  0.45213422    -0.62800
O172        O  0.00084735  0.44593515  0.45267910    -0.71200
O173        O  0.45131045  0.45344424  0.45533717    -0.70700
O174        O  0.44340996  0.06453203  0.45109973    -0.62000
O175        O  0.44707306  0.50673870  0.42428852    -0.74500
O176        O  0.45794009  0.50943036  0.48455815    -0.73300
Cu177      Cu  0.00404826  0.50215476  0.45070920     1.04600
Cu178      Cu  0.44979297  0.50835481  0.45456622     1.04300
C179        C  0.49016497  0.51035065  0.49207287     0.93000
C180        C  0.47621006  0.50413554  0.41373920     0.92200
C181        C  0.47360187  0.08200093  0.45192951     0.84300
C182        C  0.48100332  0.43523405  0.45425556     0.90600
O183        O  0.01364316  0.25065343  0.48552333    -0.73200
O184        O  0.02446765  0.25205251  0.42515465    -0.74100
O185        O  0.02157447  0.30633089  0.45540948    -0.62800
O186        O  0.01907055  0.19634903  0.45519949    -0.71200
O187        O  0.47034442  0.20256866  0.45270813    -0.70700
O188        O  0.47316567  0.31483314  0.45182730    -0.62000
O189        O  0.47504847  0.25742009  0.42263946    -0.74500
O190        O  0.46591769  0.25901064  0.48180665    -0.73300
Cu191      Cu  0.02177823  0.25136069  0.45544835     1.04600
Cu192      Cu  0.46903720  0.25864508  0.45214992     1.04300
C193        C  0.49421205  0.25758153  0.49282795     0.93000
C194        C  0.50629894  0.25690648  0.41419146     0.92200
C195        C  0.50416634  0.33119376  0.45327074     0.84300
C196        C  0.50069273  0.18497540  0.45370976     0.90600
O197        O  0.31203014  0.49366927  0.42214202    -0.73200
O198        O  0.31526923  0.49734061  0.48273844    -0.74100
O199        O  0.30984390  0.44072994  0.45364615    -0.62800
O200        O  0.31967933  0.04787596  0.45036725    -0.71200
O201        O  0.26004674  0.05866850  0.45153620    -0.70700
O202        O  0.24943310  0.44612649  0.45415408    -0.62000
O203        O  0.25480216  0.50218312  0.48337815    -0.74500
O204        O  0.25187303  0.50146686  0.42381300    -0.73300
Cu205      Cu  0.31625063  0.49550632  0.45237439     1.04600
Cu206      Cu  0.25174712  0.50194603  0.45357253     1.04300
C207        C  0.28097091  0.49726890  0.41355080     0.93000
C208        C  0.28525902  0.49978295  0.49256464     0.92200
C209        C  0.27816250  0.42598368  0.45414138     0.84300
C210        C  0.29309965  0.07052426  0.45100612     0.90600
O211        O  0.32602289  0.24356284  0.48325749    -0.73200
O212        O  0.31915137  0.24819341  0.42347130    -0.74100
O213        O  0.32764346  0.30124715  0.45401163    -0.62800
O214        O  0.31532483  0.18986641  0.45255458    -0.71200
O215        O  0.25545859  0.19780749  0.45566030    -0.70700
O216        O  0.26734388  0.30725166  0.45543819    -0.62000
O217        O  0.25866159  0.25253576  0.42557064    -0.74500
O218        O  0.26603606  0.25162030  0.48566534    -0.73300
Cu219      Cu  0.32419640  0.24548001  0.45326726     1.04600
Cu220      Cu  0.25986663  0.25257094  0.45568234     1.04300
C221        C  0.29731566  0.24718531  0.49392889     0.93000
C222        C  0.28790755  0.25052581  0.41511715     0.92200
C223        C  0.29915699  0.32168900  0.45470375     0.84300
C224        C  0.28289139  0.17649374  0.45386900     0.90600
O225        O  0.44539905  0.52104187  0.08606545    -0.73200
O226        O  0.05449611  0.51012071  0.08371585    -0.74100
O227        O  0.50157751  0.50657655  0.11483902    -0.62800
O228        O  0.49996241  0.52757311  0.05530064    -0.71200
O229        O  0.52476170  0.07227596  0.05815995    -0.70700
O230        O  0.52192634  0.05846279  0.11685848    -0.62000
O231        O  0.08004488  0.06295770  0.08758840    -0.74500
O232        O  0.46719999  0.06253143  0.08683926    -0.73300
Cu233      Cu  0.50030164  0.51450143  0.08482629     1.04600
Cu234      Cu  0.52348798  0.06644144  0.08762440     1.04300
C235        C  0.43070172  0.55238046  0.08863390     0.93000
C236        C  0.07586446  0.53726925  0.08626312     0.92200
C237        C  0.50316987  0.53379482  0.12669749     0.84300
C238        C  0.50391448  0.56048962  0.04881534     0.90600
O239        O  0.50001774  0.22969509  0.05851953    -0.73200
O240        O  0.50169267  0.23229798  0.11802612    -0.74100
O241        O  0.05628259  0.23587609  0.08732048    -0.62800
O242        O  0.44577260  0.22353915  0.08893264    -0.71200
O243        O  0.45408027  0.16348808  0.09058130    -0.70700
O244        O  0.06387118  0.17567393  0.08787408    -0.62000
O245        O  0.51173107  0.17241406  0.11939978    -0.74500
O246        O  0.50641268  0.16930830  0.05873469    -0.73300
Cu247      Cu  0.50071743  0.23269855  0.08824089     1.04600
Cu248      Cu  0.50920740  0.16838081  0.08916564     1.04300
C249        C  0.50248610  0.19956290  0.04915631     0.93000
C250        C  0.50749927  0.20315918  0.12813934     0.92200
C251        C  0.07744117  0.20792829  0.08746613     0.84300
C252        C  0.43258892  0.19108009  0.09005536     0.90600
O253        O  0.27571162  0.08258932  0.11610539    -0.73200
O254        O  0.27216394  0.07829947  0.05481837    -0.74100
O255        O  0.21949831  0.08324008  0.08640697    -0.62800
O256        O  0.32851360  0.08241135  0.08458665    -0.71200
O257        O  0.30531673  0.50350291  0.09069347    -0.70700
O258        O  0.19416748  0.51679142  0.08864447    -0.62000
O259        O  0.25103071  0.50471474  0.06049671    -0.74500
O260        O  0.24739061  0.51208814  0.11910885    -0.73300
Cu261      Cu  0.27404963  0.08378289  0.08540473     1.04600
Cu262      Cu  0.24928995  0.50726592  0.08983131     1.04300
C263        C  0.25156430  0.54237420  0.12801917     0.93000
C264        C  0.25430258  0.53296926  0.04947199     0.92200
C265        C  0.18130467  0.54946280  0.08784512     0.84300
C266        C  0.32617513  0.53172112  0.08938058     0.90600
O267        O  0.31343564  0.17373575  0.09155482    -0.73200
O268        O  0.20272717  0.16216177  0.09135889    -0.74100
O269        O  0.25862150  0.16236287  0.06166722    -0.62800
O270        O  0.25693031  0.17243443  0.12136649    -0.71200
O271        O  0.25253433  0.23279716  0.11801944    -0.70700
O272        O  0.25103664  0.22233528  0.05830631    -0.62000
O273        O  0.19633980  0.22232439  0.08862378    -0.74500
O274        O  0.30633619  0.23361814  0.08755613    -0.73300
Cu275      Cu  0.25814498  0.16556613  0.09161752     1.04600
Cu276      Cu  0.25129724  0.22982724  0.08802647     1.04300
C277        C  0.32725406  0.20580832  0.08949393     0.93000
C278        C  0.18214288  0.19037854  0.08986718     0.92200
C279        C  0.25468077  0.19065114  0.05056910     0.84300
C280        C  0.25517004  0.20422239  0.12906274     0.90600
O281        O  0.49616344  0.04533560  0.21566351    -0.73200
O282        O  0.50358576  0.04892047  0.15602361    -0.74100
O283        O  0.45895769  0.01253517  0.18394482    -0.62800
O284        O  0.04116944  0.08388127  0.18743335    -0.71200
O285        O  0.05885935  0.53519151  0.18940489    -0.70700
O286        O  0.47495293  0.46058513  0.18418993    -0.62000
O287        O  0.51821003  0.50165657  0.15681551    -0.74500
O288        O  0.51304604  0.49094339  0.21697510    -0.73300
Cu289      Cu  0.49839582  0.04900116  0.18577337     1.04600
Cu290      Cu  0.51733443  0.49478052  0.18689214     1.04300
C291        C  0.49163493  0.51164184  0.22696639     0.93000
C292        C  0.50133522  0.52828867  0.14842227     0.92200
C293        C  0.44298146  0.47428220  0.18323593     0.84300
C294        C  0.05418256  0.56961871  0.19154966     0.90600
O295        O  0.49280295  0.24118205  0.21799169    -0.73200
O296        O  0.49124579  0.23140971  0.15851298    -0.74100
O297        O  0.45113801  0.20025051  0.19036961    -0.62800
O298        O  0.03512367  0.27026158  0.18689812    -0.71200
O299        O  0.07153543  0.22155740  0.18879861    -0.70700
O300        O  0.48871426  0.15245662  0.19257177    -0.62000
O301        O  0.52800763  0.18309659  0.16028131    -0.74500
O302        O  0.53000161  0.19330697  0.22042189    -0.73300
Cu303      Cu  0.49054813  0.23769765  0.18819723     1.04600
Cu304      Cu  0.53083615  0.18663886  0.19041042     1.04300
C305        C  0.51167085  0.21900985  0.22860613     0.93000
C306        C  0.50895771  0.20574436  0.15000257     0.92200
C307        C  0.45662860  0.16577500  0.19183227     0.84300
C308        C  0.06692923  0.25617139  0.18746810     0.90600
O309        O  0.23309177  0.50146608  0.21764110    -0.73200
O310        O  0.23136300  0.51587750  0.15829157    -0.74100
O311        O  0.27246258  0.47371078  0.18517653    -0.62800
O312        O  0.19027482  0.54323191  0.19067373    -0.71200
O313        O  0.24435840  0.09782530  0.18978015    -0.70700
O314        O  0.32967221  0.02930373  0.18712759    -0.62000
O315        O  0.28943454  0.07200195  0.15850226    -0.74500
O316        O  0.28501188  0.05667443  0.21821751    -0.73300
Cu317      Cu  0.23026886  0.50713890  0.18785397     1.04600
Cu318      Cu  0.28856175  0.06565943  0.18855784     1.04300
C319        C  0.25212149  0.52334319  0.22816184     0.93000
C320        C  0.24989406  0.54143855  0.14988958     0.92200
C321        C  0.30455491  0.48699005  0.18540886     0.84300
C322        C  0.19492638  0.57762584  0.19258428     0.90600
O323        O  0.23963638  0.27439080  0.18778319    -0.73200
O324        O  0.32283125  0.20354849  0.18723015    -0.74100
O325        O  0.27597605  0.23445537  0.15796535    -0.62800
O326        O  0.28650218  0.24380805  0.21733682    -0.71200
O327        O  0.24782211  0.19768417  0.22180597    -0.70700
O328        O  0.24136708  0.18500361  0.16227633    -0.62000
O329        O  0.28580971  0.15648170  0.19317903    -0.74500
O330        O  0.20291082  0.22613152  0.19117509    -0.73300
Cu331      Cu  0.28269889  0.24065311  0.18744624     1.04600
Cu332      Cu  0.24303278  0.18975815  0.19227060     1.04300
C333        C  0.20773938  0.26057832  0.18921562     0.93000
C334        C  0.31760120  0.16935413  0.19024090     0.92200
C335        C  0.25739310  0.20810118  0.15077903     0.84300
C336        C  0.26856936  0.22246472  0.22899869     0.90600
O337        O  0.52141896  0.06497245  0.98208615    -0.73200
O338        O  0.52052968  0.07576489  0.92131855    -0.74100
O339        O  0.46661166  0.07717706  0.95211125    -0.62800
O340        O  0.07607462  0.05996499  0.94978250    -0.71200
O341        O  0.05905267  0.52340717  0.95114599    -0.70700
O342        O  0.44594274  0.52247393  0.95209552    -0.62000
O343        O  0.50239200  0.52122576  0.92264067    -0.74500
O344        O  0.50215730  0.51840066  0.98137358    -0.73300
Cu345      Cu  0.52133947  0.07338089  0.95183136     1.04600
Cu346      Cu  0.50232994  0.51890453  0.95199537     1.04300
C347        C  0.50287332  0.54729266  0.99175198     0.93000
C348        C  0.50048908  0.55112838  0.91289657     0.92200
C349        C  0.42946153  0.55355794  0.95283988     0.84300
C350        C  0.07535753  0.55461111  0.95130354     0.90600
O351        O  0.99830570  0.21893187  0.92596448    -0.73200
O352        O  0.49921136  0.20891510  0.98536355    -0.74100
O353        O  0.05521010  0.21212325  0.95539368    -0.62800
O354        O  0.44305779  0.21469298  0.95564310    -0.71200
O355        O  0.44517289  0.15479852  0.95097701    -0.70700
O356        O  0.05505315  0.15177231  0.95237705    -0.62000
O357        O  0.49956882  0.14868572  0.98170507    -0.74500
O358        O  0.00078155  0.15876260  0.92192277    -0.73300
Cu359      Cu  0.49901616  0.21824328  0.95583120     1.04600
Cu360      Cu  0.50070989  0.15399581  0.95151927     1.04300
C361        C  0.99945307  0.19116761  0.91454910     0.93000
C362        C  0.49956595  0.17673222  0.99299567     0.92200
C363        C  0.07270031  0.18181339  0.95396503     0.84300
C364        C  0.42652708  0.18408388  0.95322492     0.90600
O365        O  0.27178461  0.06605432  0.91863889    -0.73200
O366        O  0.27043675  0.08557897  0.97719939    -0.74100
O367        O  0.32655168  0.06876498  0.94875175    -0.62800
O368        O  0.21500100  0.07970651  0.94714908    -0.71200
O369        O  0.19771903  0.50373622  0.95652160    -0.70700
O370        O  0.30686603  0.50269226  0.95566655    -0.62000
O371        O  0.25318046  0.51336866  0.98595485    -0.74500
O372        O  0.25119698  0.49712883  0.92604187    -0.73300
Cu373      Cu  0.27111113  0.07712973  0.94774375     1.04600
Cu374      Cu  0.25223306  0.50218675  0.95625661     1.04300
C375        C  0.25282103  0.52546796  0.91466365     0.93000
C376        C  0.25306057  0.54626676  0.99254693     0.92200
C377        C  0.32551537  0.53193007  0.95366918     0.84300
C378        C  0.17959638  0.53301628  0.95357595     0.90600
O379        O  0.24985423  0.23703876  0.92449683    -0.73200
O380        O  0.24913006  0.24134107  0.98395032    -0.74100
O381        O  0.30462322  0.23919465  0.95429563    -0.62800
O382        O  0.19387216  0.23904285  0.95417364    -0.71200
O383        O  0.19325690  0.17846111  0.95611873    -0.70700
O384        O  0.30536649  0.17854199  0.95479618    -0.62000
O385        O  0.25047140  0.18067850  0.98574293    -0.74500
O386        O  0.24770889  0.17631275  0.92533569    -0.73300
Cu387      Cu  0.24932173  0.24111044  0.95417157     1.04600
Cu388      Cu  0.24920307  0.17625903  0.95557465     1.04300
C389        C  0.24876126  0.20643015  0.91549171     0.93000
C390        C  0.25010738  0.21190265  0.99428478     0.92200
C391        C  0.32257315  0.20916551  0.95445565     0.84300
C392        C  0.17599414  0.20897570  0.95514005     0.90600
O393        O  0.99512377  0.50154107  0.55533293    -0.73200
O394        O  0.00848518  0.49778731  0.61541099    -0.74100
O395        O  0.00990128  0.44566283  0.58437530    -0.62800
O396        O  0.01080653  0.05371720  0.58745025    -0.71200
O397        O  0.46747205  0.05486469  0.58607637    -0.70700
O398        O  0.46183516  0.44134270  0.58917647    -0.62000
O399        O  0.45766531  0.49681137  0.61893527    -0.74500
O400        O  0.44722308  0.49694712  0.55989210    -0.73300
Cu401      Cu  0.00436670  0.50018193  0.58517892     1.04600
Cu402      Cu  0.45104695  0.49646416  0.58950126     1.04300
C403        C  0.47488085  0.50263966  0.54871161     0.93000
C404        C  0.48891223  0.49978165  0.62714077     0.92200
C405        C  0.49461831  0.42919812  0.58727331     0.84300
C406        C  0.49650459  0.07445433  0.58652360     0.90600
O407        O  0.46094852  0.30016992  0.58714268    -0.73200
O408        O  0.48124518  0.19201310  0.58723028    -0.74100
O409        O  0.46648977  0.24515899  0.61748219    -0.62800
O410        O  0.47818931  0.24794838  0.55706780    -0.71200
O411        O  0.02332892  0.25078584  0.56143616    -0.70700
O412        O  0.00957264  0.25283482  0.62044669    -0.62000
O413        O  0.02424503  0.19593054  0.59201791    -0.74500
O414        O  0.00629515  0.30637736  0.58957717    -0.73300
Cu415      Cu  0.46966118  0.24587595  0.58710887     1.04600
Cu416      Cu  0.01790414  0.25174498  0.59102502     1.04300
C417        C  0.48699710  0.32331307  0.58813589     0.93000
C418        C  0.51373029  0.17967836  0.58926999     0.92200
C419        C  0.49452167  0.25248082  0.62818831     0.84300
C420        C  0.51014872  0.25309064  0.54958655     0.90600
O421        O  0.28313069  0.49636115  0.61741775    -0.73200
O422        O  0.28448834  0.49778534  0.55749514    -0.74100
O423        O  0.27694431  0.05325231  0.58587476    -0.62800
O424        O  0.28354489  0.44068359  0.58746298    -0.71200
O425        O  0.22293271  0.44109547  0.58623096    -0.70700
O426        O  0.21638221  0.05142520  0.58715332    -0.62000
O427        O  0.22381304  0.49836375  0.55709377    -0.74500
O428        O  0.22251669  0.49260490  0.61751967    -0.73300
Cu429      Cu  0.28539098  0.49702966  0.58750019     1.04600
Cu430      Cu  0.22056769  0.49571521  0.58729583     1.04300
C431        C  0.25293901  0.49373022  0.62692022     0.93000
C432        C  0.25446810  0.49863092  0.54779814     0.92200
C433        C  0.24604880  0.06988582  0.58689471     0.84300
C434        C  0.25295087  0.42339297  0.58684954     0.90600
O435        O  0.30088410  0.24436504  0.62017357    -0.73200
O436        O  0.30377725  0.24679027  0.55941566    -0.74100
O437        O  0.30550124  0.30064547  0.59017732    -0.62800
O438        O  0.30181534  0.19077761  0.58939854    -0.71200
O439        O  0.24117688  0.19132178  0.58944849    -0.70700
O440        O  0.24498007  0.30368732  0.58885407    -0.62000
O441        O  0.24307818  0.24772443  0.55953430    -0.74500
O442        O  0.24033502  0.24844381  0.61906585    -0.73300
Cu443      Cu  0.30508406  0.24557949  0.58984645     1.04600
Cu444      Cu  0.24027966  0.24781703  0.58922655     1.04300
C445        C  0.26987484  0.24647151  0.62907356     0.93000
C446        C  0.27327038  0.24753521  0.55000338     0.92200
C447        C  0.27625991  0.31965810  0.58940152     0.84300
C448        C  0.27149511  0.17350107  0.58922170     0.90600
C449        C  0.27963732  0.36032434  0.58908732    -0.16600
C450        C  0.25069729  0.38270646  0.58697456    -0.31800
H451        H  0.30680380  0.37207360  0.59051338     0.12400
H452        H  0.22361899  0.37073351  0.58557167     0.13000
C453        C  0.24354576  0.11068919  0.58778837    -0.16600
C454        C  0.27306378  0.13267985  0.58858233    -0.31800
H455        H  0.21645330  0.12290104  0.58786523     0.12400
H456        H  0.30007194  0.12026799  0.58856665     0.13000
C457        C  0.50313411  0.38941911  0.58728466    -0.16600
C458        C  0.47764196  0.36294398  0.58796614    -0.31800
H459        H  0.53182997  0.38173049  0.58664882     0.12400
H460        H  0.93619712  0.36598415  0.58805554     0.13000
C461        C  0.49242698  0.11505876  0.58708264    -0.16600
C462        C  0.52025555  0.13924003  0.58904985    -0.31800
H463        H  0.46466470  0.12545214  0.58592877     0.12400
H464        H  0.03092797  0.12331384  0.59117617     0.13000
C465        C  0.38563546  0.18161203  0.95310988    -0.16600
C466        C  0.36346168  0.21105319  0.95438423    -0.31800
H467        H  0.37348011  0.15459378  0.95188183     0.12400
H468        H  0.37573522  0.23806239  0.95531309     0.13000
C469        C  0.11357857  0.18047133  0.95420457    -0.16600
C470        C  0.13511042  0.21043480  0.95509026    -0.31800
H471        H  0.12634289  0.15366032  0.95350452     0.12400
H472        H  0.12237981  0.23728267  0.95549853     0.13000
C473        C  0.38891418  0.55701991  0.95283870    -0.16600
C474        C  0.36606435  0.52834635  0.95355268    -0.31800
H475        H  0.39627263  0.08468882  0.94986949     0.12400
H476        H  0.37743635  0.50088623  0.95427541     0.13000
C477        C  0.11602244  0.55823130  0.95114425    -0.16600
C478        C  0.13892444  0.52977076  0.95327578    -0.31800
H479        H  0.14309370  0.99781359  0.95078988     0.12400
H480        H  0.12742449  0.50250420  0.95509209     0.13000
C481        C  0.40670174  0.13836249  0.17366869    -0.13600
C482        C  0.42474042  0.14220048  0.19194893     0.08600
C483        C  0.40494044  0.13946263  0.20980383    -0.13600
C484        C  0.36687546  0.14102146  0.20925394    -0.13600
C485        C  0.34927692  0.14551611  0.19086383     0.08600
C486        C  0.36871528  0.14041424  0.17310369    -0.13600
H487        H  0.42181383  0.14059207  0.15977338     0.12600
H488        H  0.41865635  0.14258297  0.22400987     0.12600
H489        H  0.35196776  0.14500220  0.22306353     0.12600
H490        H  0.35526207  0.14389215  0.15881346     0.12600
C491        C  0.11704431  0.28583735  0.20507193    -0.13600
C492        C  0.09940130  0.27908889  0.18694496     0.08600
C493        C  0.11907445  0.28129229  0.16903560    -0.13600
C494        C  0.15710213  0.28369893  0.16954501    -0.13600
C495        C  0.17515397  0.28316095  0.18796685     0.08600
C496        C  0.15509909  0.28792962  0.20558212    -0.13600
H497        H  0.10209210  0.28375295  0.21902114     0.12600
H498        H  0.10573916  0.27562624  0.15496769     0.12600
H499        H  0.17231850  0.27949556  0.15585284     0.12600
H500        H  0.16874446  0.28704699  0.21992074     0.12600
C501        C  0.39187282  0.44504270  0.19957805    -0.13600
C502        C  0.41065170  0.45151382  0.18163308     0.08600
C503        C  0.39088091  0.45527082  0.16384093    -0.13600
C504        C  0.35336180  0.46165049  0.16469147    -0.13600
C505        C  0.33593215  0.46306879  0.18326851     0.08600
C506        C  0.35435281  0.45154394  0.20048246    -0.13600
H507        H  0.40685876  0.44221129  0.21344697     0.12600
H508        H  0.40509346  0.46036753  0.14987835     0.12600
H509        H  0.33922649  0.47057218  0.15130583     0.12600
H510        H  0.34100573  0.45265288  0.21492239     0.12600
C511        C  0.12298744  0.10276405  0.17054871    -0.13600
C512        C  0.08651307  0.59249487  0.19351260     0.08600
C513        C  0.10474716  0.59244426  0.21185354    -0.13600
C514        C  0.14265073  0.59652055  0.21226281    -0.13600
C515        C  0.16209766  0.59980280  0.19429040     0.08600
C516        C  0.16062126  0.10877707  0.17076219    -0.13600
H517        H  0.10924392  0.09957622  0.15635426     0.12600
H518        H  0.09059647  0.58406519  0.22536824     0.12600
H519        H  0.15700763  0.59058624  0.22605142     0.12600
H520        H  0.17530241  0.10930376  0.15668982     0.12600
C521        C  0.25414201  0.18626735  0.02865310    -0.16600
C522        C  0.25080144  0.21509096  0.01622744    -0.31800
H523        H  0.25646457  0.15888182  0.02265262     0.12400
H524        H  0.24880305  0.24247351  0.02233278     0.13000
C525        C  0.25429106  0.52696606  0.02775356    -0.16600
C526        C  0.25385363  0.55392470  0.01416256    -0.31800
H527        H  0.26901404  0.01240668  0.02013781     0.12400
H528        H  0.25387995  0.58227198  0.01894641     0.13000
C529        C  0.39233110  0.18461353  0.09069360    -0.16600
C530        C  0.36755943  0.21182434  0.08926949    -0.31800
H531        H  0.38288578  0.15652052  0.09213544     0.12400
H532        H  0.37710322  0.23986287  0.08769522     0.13000
C533        C  0.11782888  0.21333831  0.08741825    -0.16600
C534        C  0.14173417  0.18537341  0.08951205    -0.31800
H535        H  0.12807950  0.24116037  0.08604585     0.12400
H536        H  0.13138845  0.15760194  0.09102256     0.13000
C537        C  0.50086726  0.20128315  0.02711272    -0.16600
C538        C  0.50044445  0.17203419  0.01503887    -0.31800
H539        H  0.49981909  0.22855653  0.02053522     0.12400
H540        H  0.00141909  0.14173386  0.02182713     0.13000
C541        C  0.39008961  0.55621362  0.08924893    -0.16600
C542        C  0.36678122  0.52734574  0.08935721    -0.31800
H543        H  0.37908777  0.58381747  0.08969932     0.12400
H544        H  0.39878586  0.08361972  0.08527837     0.13000
C545        C  0.11596018  0.53025612  0.08608153    -0.16600
C546        C  0.14125415  0.55677405  0.08764335    -0.31800
H547        H  0.12488684  0.50203146  0.08464180     0.12400
H548        H  0.14889627  0.08488782  0.08836150     0.13000
C549        C  0.50472682  0.56866404  0.02708592    -0.16600
C550        C  0.50209601  0.54193366  0.01363310    -0.31800
H551        H  0.50812670  0.59678791  0.02212399     0.12400
H552        H  0.01662936  0.99557591  0.01689871     0.13000
C553        C  0.30082464  0.24625317  0.51596418    -0.16600
C554        C  0.27146503  0.24840534  0.52796424    -0.31800
H555        H  0.32796469  0.24355910  0.52238986     0.12400
H556        H  0.24441449  0.25068519  0.52136916     0.13000
C557        C  0.27433261  0.38539948  0.45464351    -0.16600
C558        C  0.30326368  0.36227034  0.45453456    -0.31800
H559        H  0.24677065  0.37427664  0.45498203     0.12400
H560        H  0.33084291  0.37334645  0.45411888     0.13000
C561        C  0.30153147  0.11051779  0.45124846    -0.16600
C562        C  0.27557035  0.13635625  0.45331466    -0.31800
H563        H  0.33000179  0.11879602  0.44998282     0.12400
H564        H  0.24718935  0.12781199  0.45468389     0.13000
C565        C  0.28579734  0.49946174  0.51470955    -0.16600
C566        C  0.25473923  0.49985278  0.52568085    -0.31800
H567        H  0.30522349  0.99525309  0.52047380     0.12400
H568        H  0.22839730  0.50076075  0.51821588     0.13000
C569        C  0.48859244  0.25615036  0.51467653    -0.16600
C570        C  0.51620738  0.25453247  0.52776168    -0.31800
H571        H  0.46056675  0.25626824  0.52013638     0.12400
H572        H  0.03068160  0.24860660  0.52297115     0.13000
C573        C  0.50729054  0.37193040  0.45324899    -0.16600
C574        C  0.47828514  0.39448802  0.45431149    -0.31800
H575        H  0.02303701  0.37734046  0.45334611     0.12400
H576        H  0.45103514  0.38266612  0.45516616     0.13000
C577        C  0.47218768  0.12279208  0.45229697    -0.16600
C578        C  0.50206874  0.14418188  0.45357771    -0.31800
H579        H  0.44539746  0.13559349  0.45147250     0.12400
H580        H  0.01724635  0.12534123  0.45483963     0.13000
C581        C  0.49601461  0.51029128  0.51386603    -0.16600
C582        C  0.46890315  0.50409765  0.52693789    -0.31800
H583        H  0.52376306  0.51417442  0.51924256     0.12400
H584        H  0.01141596  0.00305912  0.51706382     0.13000
C585        C  0.29579302  0.25847608  0.27988054    -0.13600
C586        C  0.27596108  0.23530227  0.29279058     0.08600
C587        C  0.25436556  0.20742594  0.28454248    -0.13600
C588        C  0.25229669  0.20305970  0.26387960    -0.13600
C589        C  0.27164229  0.22657039  0.25093307     0.08600
C590        C  0.29358900  0.25421252  0.25917122    -0.13600
H591        H  0.31276230  0.28012934  0.28577026     0.12600
H592        H  0.23904828  0.18884054  0.29407221     0.12600
H593        H  0.23533902  0.18133489  0.25805376     0.12600
H594        H  0.30893220  0.27272222  0.24961360     0.12600
C595        C  0.20706504  0.38836562  0.37284275    -0.13600
C596        C  0.20719928  0.40789055  0.35476793     0.08600
C597        C  0.20299021  0.38917797  0.33676245    -0.13600
C598        C  0.20580067  0.35114507  0.33657011    -0.13600
C599        C  0.21235201  0.33211178  0.35441991     0.08600
C600        C  0.20969204  0.35033416  0.37266396    -0.13600
H601        H  0.21093700  0.40252826  0.38682322     0.12600
H602        H  0.20364032  0.40401198  0.32268755     0.12600
H603        H  0.20834845  0.33737984  0.32237833     0.12600
H604        H  0.21529340  0.33592146  0.38653090     0.12600
C605        C  0.35333594  0.10349759  0.33410770    -0.13600
C606        C  0.34818665  0.08281921  0.35157794     0.08600
C607        C  0.35240008  0.09938876  0.37019522    -0.13600
C608        C  0.35365233  0.13738982  0.37133793    -0.13600
C609        C  0.35100464  0.15840024  0.35383561     0.08600
C610        C  0.35494320  0.14154294  0.33525443    -0.13600
H611        H  0.34976342  0.09100778  0.31963229     0.12600
H612        H  0.34818138  0.08365812  0.38379799     0.12600
H613        H  0.35035205  0.15012207  0.38577621     0.12600
H614        H  0.35259781  0.15752745  0.32161404     0.12600
C615        C  0.26467083  0.47791933  0.27863108    -0.13600
C616        C  0.25994576  0.50765589  0.29149569     0.08600
C617        C  0.27085462  0.04770975  0.28123681    -0.13600
C618        C  0.27043648  0.05349351  0.26058953    -0.13600
C619        C  0.25429636  0.51779064  0.24990468     0.08600
C620        C  0.26118533  0.48284715  0.25796262    -0.13600
H621        H  0.27047103  0.45089287  0.28458787     0.12600
H622        H  0.27305108  0.07105639  0.29102439     0.12600
H623        H  0.27220426  0.08121412  0.25479732     0.12600
H624        H  0.26466031  0.45957882  0.24822952     0.12600
C625        C  0.01386512  0.25880836  0.28024186    -0.13600
C626        C  0.50955561  0.23335465  0.29218357     0.08600
C627        C  0.50687465  0.19812769  0.28403162    -0.13600
C628        C  0.50877377  0.19320501  0.26333245    -0.13600
C629        C  0.51211760  0.22355414  0.25046996     0.08600
C630        C  0.01566432  0.25484995  0.25952552    -0.13600
H631        H  0.01795059  0.28565639  0.28659671     0.12600
H632        H  0.50379187  0.17440249  0.29369890     0.12600
H633        H  0.50665870  0.16584624  0.25734022     0.12600
H634        H  0.02113781  0.27867718  0.25025568     0.12600
C635        C  0.92356828  0.34234077  0.33009167    -0.13600
C636        C  0.43078719  0.32709885  0.35114838     0.08600
C637        C  0.42414985  0.34382295  0.36953378    -0.13600
C638        C  0.41786921  0.38141983  0.37020938    -0.13600
C639        C  0.41821051  0.40204650  0.35248431     0.08600
C640        C  0.91797325  0.38007222  0.33015578    -0.08800
H641        H  0.93188010  0.32934502  0.31633327     0.12600
H642        H  0.42944690  0.32913521  0.38335310     0.12600
H643        H  0.41887088  0.39497871  0.38451759     0.12600
H644        H  0.92229453  0.39542244  0.31643683     0.12600
C645        C  0.07480012  0.10305306  0.34061145    -0.13600
C646        C  0.56814735  0.09078954  0.35508367     0.08600
C647        C  0.57343367  0.10706645  0.37366769    -0.13600
C648        C  0.58151944  0.14428525  0.37452939    -0.13600
C649        C  0.58250189  0.16493393  0.35679676     0.08600
C650        C  0.08093302  0.14063779  0.34164634    -0.13600
H651        H  0.07329342  0.09032144  0.32609106     0.12600
H652        H  0.56591472  0.09263335  0.38726796     0.12600
H653        H  0.57896422  0.15791112  0.38876453     0.12600
H654        H  0.08333070  0.15607156  0.32781594     0.12600
C655        C  0.00670763  0.48374482  0.28002888    -0.13600
C656        C  0.48117744  0.49874843  0.29094231     0.08600
C657        C  0.48124366  0.03855967  0.27814907    -0.13600
C658        C  0.48522548  0.04099947  0.25744265    -0.13600
C659        C  0.48787559  0.50669661  0.24893179     0.08600
C660        C  0.01126546  0.48882963  0.25943535    -0.13600
H661        H  0.02524639  0.46556878  0.28787667     0.12600
H662        H  0.46082189  0.05550289  0.28528869     0.12600
H663        H  0.46765942  0.05958499  0.24921178     0.12600
H664        H  0.03310957  0.47433920  0.25194264     0.12600
C665        C  0.39660328  0.13708792  0.86728208    -0.13600
C666        C  0.41492158  0.14459717  0.84931011     0.08600
C667        C  0.39524296  0.14553605  0.83140814    -0.13600
C668        C  0.35712760  0.14655597  0.83197542    -0.13600
C669        C  0.33903623  0.14635451  0.85042499     0.08600
C670        C  0.35849894  0.13823356  0.86786995    -0.13600
H671        H  0.41151651  0.13670485  0.88124594     0.12600
H672        H  0.40905337  0.15178988  0.81746001     0.12600
H673        H  0.34234670  0.15322655  0.81841980     0.12600
H674        H  0.34480920  0.13838716  0.88223112     0.12600
C675        C  0.10186160  0.27739042  0.87461883    -0.13600
C676        C  0.08331184  0.27593425  0.85638395     0.08600
C677        C  0.10252213  0.28174471  0.83852601    -0.13600
C678        C  0.14064531  0.28228635  0.83868980    -0.13600
C679        C  0.15930247  0.27691226  0.85670721     0.08600
C680        C  0.13999991  0.27777345  0.87477916    -0.13600
H681        H  0.08733749  0.27233456  0.88848893     0.12600
H682        H  0.08850024  0.28007245  0.82432781     0.12600
H683        H  0.15523830  0.28100953  0.82461473     0.12600
H684        H  0.15410613  0.27300814  0.88877108     0.12600
C685        C  0.37679390  0.95679668  0.83539993    -0.13600
C686        C  0.33836405  0.45185066  0.85381491     0.08600
C687        C  0.35769646  0.45179843  0.87188361    -0.13600
C688        C  0.39436831  0.46243700  0.87200292    -0.13600
C689        C  0.41173759  0.47128705  0.85397986     0.08600
C690        C  0.41420750  0.96396917  0.83521187    -0.13600
H691        H  0.36217912  0.95696275  0.82133996     0.12600
H692        H  0.34299319  0.45089703  0.88594212     0.12600
H693        H  0.40763484  0.46795690  0.88610344     0.12600
H694        H  0.42787627  0.96863749  0.82104572     0.12600
C695        C  0.12124386  0.08859400  0.82651945    -0.13600
C696        C  0.09314569  0.61105419  0.85150481     0.08600
C697        C  0.11052812  0.60887206  0.87013481    -0.13600
C698        C  0.14717578  0.59855467  0.87107289    -0.13600
C699        C  0.16661919  0.59284470  0.85337865     0.08600
C700        C  0.15919421  0.08588382  0.82766290    -0.13600
H701        H  0.10795782  0.08282239  0.81245105     0.12600
H702        H  0.09436036  0.60753170  0.88370644     0.12600
H703        H  0.15884600  0.59072106  0.88533836     0.12600
H704        H  0.17449260  0.07863370  0.81440073     0.12600
C705        C  0.28668751  0.23491652  0.76311598    -0.13600
C706        C  0.25468845  0.23482736  0.75159939     0.08600
C707        C  0.22082802  0.22854179  0.76100692    -0.13600
C708        C  0.21915620  0.22195632  0.78164498    -0.13600
C709        C  0.25119628  0.22275566  0.79314885     0.08600
C710        C  0.28488334  0.22956403  0.78374097    -0.13600
H711        H  0.31309387  0.23952603  0.75615299     0.12600
H712        H  0.19587337  0.22789698  0.75233128     0.12600
H713        H  0.19287164  0.21706324  0.78868081     0.12600
H714        H  0.30991143  0.23031712  0.79236384     0.12600
C715        C  0.32767794  0.39026751  0.67464656    -0.13600
C716        C  0.32114385  0.40931387  0.69232046     0.08600
C717        C  0.32373709  0.39109671  0.71073149    -0.13600
C718        C  0.32672696  0.35306433  0.71126353    -0.13600
C719        C  0.32684012  0.33349956  0.69338108     0.08600
C720        C  0.33071491  0.35227929  0.67518855    -0.13600
H721        H  0.32520268  0.40402370  0.66031873     0.12600
H722        H  0.31818639  0.40552458  0.72446626     0.12600
H723        H  0.32307687  0.33885658  0.72539135     0.12600
H724        H  0.33019411  0.33747154  0.66125050     0.12600
C725        C  0.18527085  0.10050914  0.66907425    -0.13600
C726        C  0.18742241  0.08045246  0.68694501     0.08600
C727        C  0.18494282  0.09857886  0.70522192    -0.13600
C728        C  0.18892486  0.13644955  0.70563543    -0.13600
C729        C  0.19452475  0.15570117  0.68774234     0.08600
C730        C  0.18923394  0.13837487  0.66946171    -0.13600
H731        H  0.18736527  0.08671261  0.65486664     0.12600
H732        H  0.18683025  0.08332534  0.71912853     0.12600
H733        H  0.19309524  0.14975339  0.71984401     0.12600
H734        H  0.19364766  0.15313782  0.65556574     0.12600
C735        C  0.28741159  0.02416182  0.75690253    -0.13600
C736        C  0.25030735  0.50625698  0.74984254     0.08600
C737        C  0.22530368  0.48605532  0.76150965    -0.13600
C738        C  0.22464419  0.48961789  0.78230857    -0.13600
C739        C  0.24884279  0.51361589  0.79193876     0.08600
C740        C  0.28819879  0.02818225  0.77762951    -0.13600
H741        H  0.30624362  0.04018269  0.74789272     0.12600
H742        H  0.20632694  0.46730846  0.75458168     0.12600
H743        H  0.20520473  0.47347007  0.79085185     0.12600
H744        H  0.30771724  0.04702291  0.78402685     0.12600
C745        C  0.46326951  0.24222222  0.76246837    -0.13600
C746        C  0.98237508  0.23779285  0.75125719     0.08600
C747        C  0.01634744  0.22957678  0.75999133    -0.13600
C748        C  0.01904767  0.22312112  0.78057467    -0.13600
C749        C  0.98804019  0.22602846  0.79286603     0.08600
C750        C  0.46478357  0.23714050  0.78318821    -0.13600
H751        H  0.43686033  0.24493646  0.75530499     0.12600
H752        H  0.04065219  0.22728595  0.75079946     0.12600
H753        H  0.04543752  0.21637662  0.78694464     0.12600
H754        H  0.43950875  0.23596304  0.79165053     0.12600
C755        C  0.90871193  0.39614374  0.67455916    -0.13600
C756        C  0.42058575  0.41545117  0.68960216     0.08600
C757        C  0.41697769  0.39654550  0.70777860    -0.13600
C758        C  0.41842895  0.35838898  0.70810325    -0.13600
C759        C  0.42308218  0.33934110  0.69023585     0.08600
C760        C  0.90842546  0.35796639  0.67460393    -0.13600
H761        H  0.91022612  0.41055521  0.66037540     0.12600
H762        H  0.41910821  0.41109427  0.72174671     0.12600
H763        H  0.42141055  0.34432072  0.72230745     0.12600
H764        H  0.90948012  0.34378116  0.66048226     0.12600
C765        C  0.05051361  0.09895559  0.70380496    -0.13600
C766        C  0.56910292  0.09219078  0.68371388     0.08600
C767        C  0.56854981  0.11313173  0.66612593    -0.13600
C768        C  0.56577879  0.15101322  0.66730066    -0.13600
C769        C  0.56368577  0.16747779  0.68604138     0.08600
C770        C  0.04755952  0.13692025  0.70452989    -0.13600
H771        H  0.04976253  0.08343689  0.71766056     0.12600
H772        H  0.56383054  0.10015740  0.65188011     0.12600
H773        H  0.55930683  0.16653639  0.65390886     0.12600
H774        H  0.04503175  0.15006111  0.71890390     0.12600
C775        C  0.01644149  0.49296718  0.76075062    -0.13600
C776        C  0.98951749  0.99657427  0.74794883     0.08600
C777        C  0.48584382  0.04420477  0.75658037    -0.13600
C778        C  0.48973487  0.05073121  0.77703509    -0.13600
C779        C  0.00236911  0.53082914  0.78966775     0.08600
C780        C  0.02027578  0.50062610  0.78110441    -0.13600
H781        H  0.03053327  0.46950870  0.75464150     0.12600
H782        H  0.46824265  0.06203821  0.74789377     0.12600
H783        H  0.47468041  0.07311905  0.78363705     0.12600
H784        H  0.03701519  0.48261602  0.79018107     0.12600
O785        O  0.00904233  0.97367842  0.65642240    -0.73200
O786        O  0.01168892  0.48496513  0.71804378    -0.74100
O787        O  0.97609540  0.92889147  0.68671334    -0.62800
O788        O  0.04690372  0.51950389  0.68536949    -0.71200
O789        O  0.50269469  0.56193197  0.68615266    -0.70700
O790        O  0.44273709  0.98001887  0.68770431    -0.62000
O791        O  0.46656312  0.52521219  0.71745697    -0.74500
O792        O  0.47653953  0.01775879  0.65579498    -0.73300
Cu793      Cu  0.01062977  0.97139258  0.68652696     1.04600
Cu794      Cu  0.46463738  0.52280318  0.68775115     1.04300
C795        C  0.50189515  0.00031645  0.64684151     0.93000
C796        C  0.99067235  0.50792560  0.72679528     0.92200
C797        C  0.94128685  0.93204330  0.68758233     0.84300
C798        C  0.53715305  0.55592307  0.68694296     0.90600
O799        O  0.50654042  0.69036598  0.68567332    -0.73200
O800        O  0.43711902  0.77484630  0.68646642    -0.74100
O801        O  0.47071057  0.73330497  0.65619316    -0.62800
O802        O  0.47156131  0.73123677  0.71596266    -0.71200
O803        O  0.00897616  0.75680750  0.71497250    -0.70700
O804        O  0.00781750  0.76122208  0.65448787    -0.62000
O805        O  0.97158510  0.79818577  0.68576589    -0.74500
O806        O  0.04687023  0.72066130  0.68364259    -0.73300
Cu807      Cu  0.46991087  0.73099390  0.68606881     1.04600
Cu808      Cu  0.01032565  0.76076647  0.68475558     1.04300
C809        C  0.54126064  0.69496583  0.68570253     0.93000
C810        C  0.45191440  0.80641268  0.68637320     0.92200
C811        C  0.49511672  0.75092805  0.64643067     0.84300
C812        C  0.98791427  0.73403677  0.72400733     0.90600
O813        O  0.26880249  0.93417271  0.68710256    -0.73200
O814        O  0.19338280  0.51996014  0.68711632    -0.74100
O815        O  0.22887614  0.97477962  0.65741477    -0.62800
O816        O  0.23674150  0.97673519  0.71765035    -0.71200
O817        O  0.28318612  0.01554815  0.71507825    -0.70700
O818        O  0.27798642  0.01042219  0.65537686    -0.62000
O819        O  0.24211076  0.55631246  0.68481682    -0.74500
O820        O  0.31664506  0.97176386  0.68562828    -0.73300
Cu821      Cu  0.23135506  0.97388790  0.68766972     1.04600
Cu822      Cu  0.28227653  0.01420229  0.68514641     1.04300
C823        C  0.30334632  0.93962003  0.68667949     0.93000
C824        C  0.20747625  0.55153499  0.68479422     0.92200
C825        C  0.25214975  0.99280135  0.64696553     0.84300
C826        C  0.26076826  0.99714846  0.72585967     0.90600
O827        O  0.20265631  0.72248965  0.68294614    -0.73200
O828        O  0.27326549  0.80416633  0.68795052    -0.74100
O829        O  0.24291458  0.76540112  0.65548715    -0.62800
O830        O  0.23352562  0.75959339  0.71542409    -0.71200
O831        O  0.28179136  0.72267718  0.71620022    -0.70700
O832        O  0.29157912  0.72901966  0.65660142    -0.62000
O833        O  0.32168982  0.76729903  0.68897658    -0.74500
O834        O  0.25048573  0.68480412  0.68351163    -0.73300
Cu835      Cu  0.23657054  0.76445610  0.68543745     1.04600
Cu836      Cu  0.28797442  0.72446329  0.68640472     1.04300
C837        C  0.21597951  0.69043028  0.68234777     0.93000
C838        C  0.30779628  0.79925793  0.68896980     0.92200
C839        C  0.26853359  0.74792977  0.64665021     0.84300
C840        C  0.25625338  0.73982653  0.72520109     0.90600
O841        O  0.48115566  0.55816084  0.82070857    -0.73200
O842        O  0.48166114  0.57147724  0.88047407    -0.74100
O843        O  0.02844049  0.60425652  0.84809824    -0.62800
O844        O  0.43858947  0.52998343  0.85259245    -0.71200
O845        O  0.49585528  0.98193499  0.85250413    -0.70700
O846        O  0.07162441  0.03446750  0.84719618    -0.62000
O847        O  0.53730466  0.02105533  0.88045590    -0.74500
O848        O  0.53614855  0.01282096  0.82096552    -0.73300
Cu849      Cu  0.47994002  0.56632015  0.85045225     1.04600
Cu850      Cu  0.53843959  0.01545253  0.85077109     1.04300
C851        C  0.51597901  0.03429860  0.81062440     0.93000
C852        C  0.51980813  0.04658496  0.88923014     0.92200
C853        C  0.06751053  0.06898440  0.84518845     0.84300
C854        C  0.46379159  0.99536445  0.85253967     0.90600
O855        O  0.97025490  0.74464295  0.82066017    -0.73200
O856        O  0.97079468  0.73540427  0.88074377    -0.74100
O857        O  0.01315884  0.77355202  0.85176771    -0.62800
O858        O  0.43168243  0.70914014  0.85011146    -0.71200
O859        O  0.47127375  0.66355765  0.84600281    -0.70700
O860        O  0.04823406  0.72393151  0.84981301    -0.62000
O861        O  0.00465174  0.68512822  0.87849330    -0.74500
O862        O  0.00491779  0.69495960  0.81855181    -0.73300
Cu863      Cu  0.96911036  0.74176111  0.85079124     1.04600
Cu864      Cu  0.00646796  0.68862897  0.84846508     1.04300
C865        C  0.98757132  0.72125436  0.81013225     0.93000
C866        C  0.98710584  0.70830150  0.88901215     0.92200
C867        C  0.04455022  0.75864951  0.85103063     0.84300
C868        C  0.43859136  0.67526980  0.84749156     0.90600
O869        O  0.24701773  0.99056188  0.82313940    -0.73200
O870        O  0.25058863  0.00114518  0.88283344    -0.74100
O871        O  0.20550424  0.02933074  0.85172132    -0.62800
O872        O  0.29245760  0.96296310  0.85408773    -0.71200
O873        O  0.31030265  0.50849510  0.85324385    -0.70700
O874        O  0.22966349  0.57984778  0.85167820    -0.62000
O875        O  0.27008196  0.54606114  0.88241679    -0.74500
O876        O  0.26908840  0.54054813  0.82248925    -0.73300
Cu877      Cu  0.24749604  0.99430171  0.85309748     1.04600
Cu878      Cu  0.27118989  0.54523332  0.85240472     1.04300
C879        C  0.26484014  0.01272682  0.81188826     0.93000
C880        C  0.26722380  0.02853108  0.89028681     0.92200
C881        C  0.20910267  0.06374510  0.84865096     0.84300
C882        C  0.32354498  0.97864015  0.85301785     0.90600
O883        O  0.22586791  0.70194677  0.81903976    -0.73200
O884        O  0.22390495  0.69266857  0.87922511    -0.74100
O885        O  0.18252772  0.73052896  0.85009040    -0.62800
O886        O  0.26743506  0.66305100  0.84796734    -0.71200
O887        O  0.30328089  0.71169821  0.85182477    -0.70700
O888        O  0.21793707  0.78006466  0.85070216    -0.62000
O889        O  0.25689030  0.74359302  0.88105430    -0.74500
O890        O  0.26456710  0.74855187  0.82149086    -0.73300
Cu891      Cu  0.22358742  0.69536015  0.84901287     1.04600
Cu892      Cu  0.26210084  0.74759847  0.85136552     1.04300
C893        C  0.24606339  0.72645087  0.81084011     0.93000
C894        C  0.23924186  0.71761027  0.88955332     0.92200
C895        C  0.18640007  0.76521454  0.85057732     0.84300
C896        C  0.29905885  0.67724180  0.84958295     0.90600
O897        O  0.46165028  0.03005405  0.37938111    -0.73200
O898        O  0.47519001  0.03285406  0.31996770    -0.74100
O899        O  0.43044051  0.99217973  0.34689175    -0.62800
O900        O  0.48134947  0.55790839  0.35254997    -0.71200
O901        O  0.02567165  0.52478540  0.35319506    -0.70700
O902        O  0.96701135  0.94888666  0.34834361    -0.62000
O903        O  0.01293368  0.98799339  0.32160792    -0.74500
O904        O  0.99877213  0.98453397  0.38150121    -0.73300
Cu905      Cu  0.46722184  0.03281564  0.34955609     1.04600
Cu906      Cu  0.00742032  0.98421133  0.35162702     1.04300
C907        C  0.48287764  0.01026120  0.39002772     0.93000
C908        C  0.49892204  0.01254898  0.31147102     0.92200
C909        C  0.44193316  0.95925882  0.34783176     0.84300
C910        C  0.51628894  0.55605403  0.35254603     0.90600
O911        O  0.02956767  0.72891573  0.34915003    -0.73200
O912        O  0.96776006  0.81871991  0.34542185    -0.74100
O913        O  0.00120467  0.77710227  0.37725244    -0.62800
O914        O  0.99754881  0.76857449  0.31768016    -0.71200
O915        O  0.45219755  0.73776090  0.32128474    -0.70700
O916        O  0.45956075  0.74716639  0.38080398    -0.62000
O917        O  0.42453563  0.78747745  0.34985043    -0.74500
O918        O  0.48671157  0.69826870  0.35228673    -0.73300
Cu919      Cu  0.00062853  0.77486963  0.34727395     1.04600
Cu920      Cu  0.45395870  0.74155176  0.35118086     1.04300
C921        C  0.52154995  0.69978794  0.35098303     0.93000
C922        C  0.44104161  0.81783420  0.34729683     0.92200
C923        C  0.48720794  0.76313450  0.38846713     0.84300
C924        C  0.47764035  0.75082858  0.31022448     0.90600
O925        O  0.25782609  0.94165641  0.34968007    -0.73200
O926        O  0.32787200  0.52558948  0.34866823    -0.74100
O927        O  0.29969338  0.97906408  0.37929937    -0.62800
O928        O  0.29178765  0.98346412  0.31896121    -0.71200
O929        O  0.24896803  0.02624684  0.32182892    -0.70700
O930        O  0.25240340  0.01701453  0.38128329    -0.62000
O931        O  0.27819574  0.55964656  0.35353418    -0.74500
O932        O  0.21224812  0.98192145  0.35075446    -0.73300
Cu933      Cu  0.29725933  0.97929047  0.34899578     1.04600
Cu934      Cu  0.24902692  0.02265820  0.35162943     1.04300
C935        C  0.22367085  0.94900437  0.35015092     0.93000
C936        C  0.31260083  0.55663039  0.35059349     0.92200
C937        C  0.27721705  0.99782685  0.38972332     0.84300
C938        C  0.26986930  0.00666109  0.31100598     0.90600
O939        O  0.31625631  0.72927459  0.34640370    -0.73200
O940        O  0.24798486  0.81308183  0.34968272    -0.74100
O941        O  0.28876579  0.77110046  0.37814757    -0.62800
O942        O  0.27467957  0.76943037  0.31827319    -0.71200
O943        O  0.22762573  0.73183798  0.32260161    -0.70700
O944        O  0.23885048  0.73700731  0.38188028    -0.62000
O945        O  0.19887234  0.77750558  0.35279388    -0.74500
O946        O  0.26829348  0.69274676  0.35141333    -0.73300
Cu947      Cu  0.28346829  0.77225036  0.34802541     1.04600
Cu948      Cu  0.23175347  0.73343155  0.35232902     1.04300
C949        C  0.30260260  0.69753106  0.34858837     0.93000
C950        C  0.21340539  0.80912681  0.35122617     0.92200
C951        C  0.26608965  0.75380919  0.38936470     0.84300
C952        C  0.24921743  0.74949755  0.31101543     0.90600
O953        O  0.98840849  0.00198422  0.48193237    -0.73200
O954        O  0.99786629  0.00204088  0.42238454    -0.74100
O955        O  0.00160157  0.55876857  0.44881678    -0.62800
O956        O  0.99145597  0.94652902  0.45217269    -0.71200
O957        O  0.44182990  0.95432732  0.44936808    -0.70700
O958        O  0.45110434  0.56337963  0.45352366    -0.62000
O959        O  0.44735300  0.01177854  0.42001983    -0.74500
O960        O  0.43991387  0.00736933  0.48050634    -0.73300
Cu961      Cu  0.99472699  0.00226394  0.45224480     1.04600
Cu962      Cu  0.44102003  0.00954860  0.45016522     1.04300
C963        C  0.46946671  0.00687686  0.49074300     0.93000
C964        C  0.47903054  0.01015174  0.41185197     0.92200
C965        C  0.48058458  0.58167868  0.45125565     0.84300
C966        C  0.47142343  0.93587289  0.45060206     0.90600
O967        O  0.02466782  0.75204461  0.47717968    -0.73200
O968        O  0.01337563  0.75964856  0.41725474    -0.74100
O969        O  0.01809031  0.81010826  0.44882787    -0.62800
O970        O  0.02192073  0.70016572  0.44547451    -0.71200
O971        O  0.47147706  0.70229381  0.45072247    -0.70700
O972        O  0.46759380  0.81468792  0.45142163    -0.62000
O973        O  0.46343239  0.75941637  0.42135843    -0.74500
O974        O  0.47381728  0.75733675  0.48100781    -0.73300
Cu975      Cu  0.02155090  0.75548648  0.44704997     1.04600
Cu976      Cu  0.46692388  0.75837561  0.45123554     1.04300
C977        C  0.50554708  0.75716712  0.48897350     0.93000
C978        C  0.49169115  0.76252880  0.41025630     0.92200
C979        C  0.49773550  0.83269649  0.45042071     0.84300
C980        C  0.50256854  0.68640496  0.44858553     0.90600
O981        O  0.30952522  0.99207028  0.42070417    -0.73200
O982        O  0.30963820  0.99420362  0.48136258    -0.74100
O983        O  0.30186243  0.93920376  0.45164298    -0.62800
O984        O  0.31933520  0.55076681  0.45101442    -0.71200
O985        O  0.25912290  0.55731938  0.45276309    -0.70700
O986        O  0.24190853  0.94831751  0.45116301    -0.62000
O987        O  0.24957492  0.00281254  0.48120582    -0.74500
O988        O  0.25007423  0.00434125  0.42149628    -0.73300
Cu989      Cu  0.31226358  0.99307687  0.45102484     1.04600
Cu990      Cu  0.24833057  0.00389900  0.45133236     1.04300
C991        C  0.27922235  0.99780258  0.41164881     0.93000
C992        C  0.27938309  0.99835259  0.49078708     0.92200
C993        C  0.26935066  0.92645253  0.45139046     0.84300
C994        C  0.29115361  0.57145738  0.45140328     0.90600
O995        O  0.31876733  0.74428910  0.47773689    -0.73200
O996        O  0.30377976  0.74973230  0.41817267    -0.74100
O997        O  0.31575155  0.80179011  0.44863986    -0.62800
O998        O  0.30571093  0.69099445  0.44745675    -0.71200
O999        O  0.24604477  0.69704289  0.45245746    -0.70700
O1000       O  0.25569346  0.80722800  0.45238485    -0.62000
O1001       O  0.24367385  0.75312402  0.42266284    -0.74500
O1002       O  0.25896493  0.75075230  0.48212835    -0.73300
Cu1003     Cu  0.31311001  0.74646132  0.44781274     1.04600
Cu1004     Cu  0.24906299  0.75220367  0.45256552     1.04300
C1005       C  0.29116203  0.74697387  0.48934387     0.93000
C1006       C  0.27147186  0.75242998  0.41106977     0.92200
C1007       C  0.28729847  0.82189459  0.45053799     0.84300
C1008       C  0.27404296  0.67658974  0.45008888     0.90600
O1009       O  0.46987175  0.00214044  0.08430475    -0.73200
O1010       O  0.07859839  0.00284439  0.08343011    -0.74100
O1011       O  0.52552483  0.99805452  0.11410044    -0.62800
O1012       O  0.52362998  0.01218308  0.05371405    -0.71200
O1013       O  0.50742499  0.58678955  0.06102650    -0.70700
O1014       O  0.50533156  0.56643222  0.11987469    -0.62000
O1015       O  0.06262926  0.56934976  0.08912425    -0.74500
O1016       O  0.45092289  0.58081528  0.09058268    -0.73300
Cu1017     Cu  0.52456330  0.00201808  0.08372953     1.04600
Cu1018     Cu  0.50671452  0.57809242  0.09061902     1.04300
C1019       C  0.45104612  0.03134360  0.08561375     0.93000
C1020       C  0.09679635  0.03222595  0.08558404     0.92200
C1021       C  0.52339120  0.02681148  0.12486617     0.84300
C1022       C  0.52406810  0.04492670  0.04657342     0.90600
O1023       O  0.47724474  0.73837548  0.05607180    -0.73200
O1024       O  0.47621716  0.73881004  0.11550734    -0.74100
O1025       O  0.03257173  0.74524982  0.08425795    -0.62800
O1026       O  0.42162362  0.73123435  0.08575137    -0.71200
O1027       O  0.42979860  0.67113798  0.08690035    -0.70700
O1028       O  0.03965409  0.68497310  0.08455389    -0.62000
O1029       O  0.48610742  0.67887117  0.11650918    -0.74500
O1030       O  0.48380234  0.67800435  0.05582657    -0.73300
Cu1031     Cu  0.47655291  0.74033061  0.08578583     1.04600
Cu1032     Cu  0.48507002  0.67599413  0.08623129     1.04300
C1033       C  0.48046678  0.70857074  0.04648219     0.93000
C1034       C  0.48129821  0.70933238  0.12543656     0.92200
C1035       C  0.05346976  0.71711138  0.08433387     0.84300
C1036       C  0.40834883  0.69878974  0.08647491     0.90600
O1037       O  0.25725133  0.57202593  0.11809455    -0.73200
O1038       O  0.25739421  0.56487825  0.05719940    -0.74100
O1039       O  0.20299275  0.57681215  0.08737464    -0.62800
O1040       O  0.31214624  0.56360098  0.08786740    -0.71200
O1041       O  0.32998657  0.02186122  0.08675284    -0.70700
O1042       O  0.21709513  0.02263624  0.08702772    -0.62000
O1043       O  0.27302984  0.01776573  0.05759052    -0.74500
O1044       O  0.27306797  0.02190416  0.11624590    -0.73300
Cu1045     Cu  0.25771703  0.57151929  0.08753878     1.04600
Cu1046     Cu  0.27338734  0.01895926  0.08695056     1.04300
C1047       C  0.27407862  0.05194845  0.12561273     0.93000
C1048       C  0.27184658  0.04645796  0.04679330     0.92200
C1049       C  0.20082657  0.05385684  0.08688853     0.84300
C1050       C  0.34675272  0.05280687  0.08561269     0.90600
O1051       O  0.28900504  0.68206845  0.08815205    -0.73200
O1052       O  0.17837577  0.67041359  0.08729767    -0.74100
O1053       O  0.23494204  0.67060369  0.05784505    -0.62800
O1054       O  0.23132460  0.68113658  0.11770430    -0.71200
O1055       O  0.22707879  0.74145342  0.11411825    -0.70700
O1056       O  0.22751954  0.73057380  0.05440074    -0.62000
O1057       O  0.17214576  0.73060606  0.08444431    -0.74500
O1058       O  0.28213488  0.74194161  0.08402628    -0.73300
Cu1059     Cu  0.23367776  0.67394384  0.08788539     1.04600
Cu1060     Cu  0.22700114  0.73818980  0.08413222     1.04300
C1061       C  0.30296670  0.71406848  0.08604026     0.93000
C1062       C  0.15789332  0.69870212  0.08581109     0.92200
C1063       C  0.23141122  0.69890088  0.04668268     0.84300
C1064       C  0.22871166  0.71298325  0.12529679     0.90600
O1065       O  0.47324548  0.53666215  0.21806589    -0.73200
O1066       O  0.48272626  0.55083731  0.15878236    -0.74100
O1067       O  0.43768192  0.50874044  0.18428382    -0.62800
O1068       O  0.02235446  0.58367110  0.19184616    -0.71200
O1069       O  0.07844617  0.03574748  0.18710904    -0.70700
O1070       O  0.49548627  0.96387926  0.18556751    -0.62000
O1071       O  0.53891060  0.99943756  0.15615979    -0.74500
O1072       O  0.53521782  0.99889575  0.21627042    -0.73300
Cu1073     Cu  0.47662343  0.54541440  0.18842608     1.04600
Cu1074     Cu  0.53860209  0.99781774  0.18627524     1.04300
C1075       C  0.51451515  0.02142437  0.22545105     0.93000
C1076       C  0.52181359  0.02458825  0.14668437     0.92200
C1077       C  0.46366221  0.97796459  0.18441955     0.84300
C1078       C  0.07316984  0.07035795  0.18764714     0.90600
O1079       O  0.45772425  0.74482804  0.21478360    -0.73200
O1080       O  0.46312882  0.73723209  0.15546817    -0.74100
O1081       O  0.41979305  0.70526630  0.18566815    -0.62800
O1082       O  0.00321111  0.78093681  0.18352477    -0.71200
O1083       O  0.04061546  0.73301032  0.18551015    -0.70700
O1084       O  0.45719831  0.65779755  0.18993959    -0.62000
O1085       O  0.49848982  0.68796986  0.15792709    -0.74500
O1086       O  0.49798256  0.69963191  0.21787690    -0.73300
Cu1087     Cu  0.45914440  0.74257402  0.18503410     1.04600
Cu1088     Cu  0.49977752  0.69199626  0.18806220     1.04300
C1089       C  0.47750283  0.72404662  0.22571246     0.93000
C1090       C  0.48096166  0.71130199  0.14730037     0.92200
C1091       C  0.42514218  0.67097743  0.18809217     0.84300
C1092       C  0.03532097  0.76752111  0.18438646     0.90600
O1093       O  0.24924922  0.00809984  0.21450204    -0.73200
O1094       O  0.25398608  0.02304692  0.15520717    -0.74100
O1095       O  0.29293979  0.98124340  0.18348074    -0.62800
O1096       O  0.20887047  0.04905054  0.18599606    -0.71200
O1097       O  0.22679336  0.59171808  0.19287392    -0.70700
O1098       O  0.31016606  0.52134938  0.18741557    -0.62000
O1099       O  0.26809357  0.56416460  0.16028483    -0.74500
O1100       O  0.26957353  0.54987799  0.22000038    -0.73300
Cu1101     Cu  0.24984655  0.01387269  0.18464259     1.04600
Cu1102     Cu  0.27010899  0.55847507  0.19026456     1.04300
C1103       C  0.26696955  0.02989639  0.22574355     0.93000
C1104       C  0.27223587  0.04949479  0.14747345     0.92200
C1105       C  0.32475474  0.99483434  0.18512646     0.84300
C1106       C  0.21285476  0.08345690  0.18813100     0.90600
O1107       O  0.20797324  0.78378117  0.18386694    -0.73200
O1108       O  0.29123023  0.71270595  0.18465170    -0.74100
O1109       O  0.24645209  0.74376182  0.15458822    -0.62800
O1110       O  0.25353607  0.75358953  0.21385315    -0.71200
O1111       O  0.21492578  0.70737546  0.21821292    -0.70700
O1112       O  0.21157391  0.69436184  0.15829065    -0.62000
O1113       O  0.25389224  0.66549828  0.18989541    -0.74500
O1114       O  0.17123096  0.73549044  0.18692176    -0.73300
Cu1115     Cu  0.25120557  0.75004162  0.18410567     1.04600
Cu1116     Cu  0.21138908  0.69910797  0.18845420     1.04300
C1117       C  0.17604277  0.76998048  0.18525547     0.93000
C1118       C  0.28585687  0.67845876  0.18750198     0.92200
C1119       C  0.22870070  0.71719662  0.14707000     0.84300
C1120       C  0.23530466  0.73247948  0.22545811     0.90600
O1121       O  0.50382205  0.57895522  0.98324473    -0.73200
O1122       O  0.49987619  0.58192026  0.92198510    -0.74100
O1123       O  0.44789059  0.58304106  0.95348671    -0.62800
O1124       O  0.05664284  0.58398395  0.95159771    -0.71200
O1125       O  0.07073310  0.99953976  0.94961554    -0.70700
O1126       O  0.45917976  0.01734487  0.94880465    -0.62000
O1127       O  0.51679271  0.01521611  0.91975909    -0.74500
O1128       O  0.51356788  0.00515975  0.97857363    -0.73300
Cu1129     Cu  0.50225656  0.58375092  0.95258517     1.04600
Cu1130     Cu  0.51482197  0.00906446  0.94912110     1.04300
C1131       C  0.51760833  0.03281485  0.98971933     0.93000
C1132       C  0.51895068  0.04628263  0.91111670     0.92200
C1133       C  0.44553867  0.04958644  0.95043306     0.84300
C1134       C  0.09086352  0.02837162  0.94965900     0.90600
O1135       O  0.98327854  0.73149987  0.92198924    -0.73200
O1136       O  0.48189280  0.71927142  0.98268731    -0.74100
O1137       O  0.03905863  0.72397838  0.95180569    -0.62800
O1138       O  0.42656409  0.72493158  0.95269615    -0.71200
O1139       O  0.42903389  0.66512377  0.94769952    -0.70700
O1140       O  0.03810936  0.66357245  0.94929164    -0.62000
O1141       O  0.48215361  0.65907127  0.97887322    -0.74500
O1142       O  0.98554421  0.67121631  0.91839625    -0.73300
Cu1143     Cu  0.48240295  0.72886922  0.95315889     1.04600
Cu1144     Cu  0.48452758  0.66464174  0.94878335     1.04300
C1145       C  0.98528613  0.70345804  0.91080532     0.93000
C1146       C  0.48164157  0.68701001  0.99022283     0.92200
C1147       C  0.05616234  0.69341669  0.95056287     0.84300
C1148       C  0.41022935  0.69427889  0.95009086     0.90600
O1149       O  0.25427733  0.55743418  0.92199087    -0.73200
O1150       O  0.25237155  0.57334561  0.98050948    -0.74100
O1151       O  0.30925375  0.56296700  0.95175299    -0.62800
O1152       O  0.19648692  0.56359411  0.95088538    -0.71200
O1153       O  0.20937536  0.02034259  0.95354892    -0.70700
O1154       O  0.31865459  0.00923058  0.95378415    -0.62000
O1155       O  0.26498625  0.02611627  0.98344933    -0.74500
O1156       O  0.26308130  0.00661982  0.92394943    -0.73300
Cu1157     Cu  0.25306066  0.56648066  0.95111790     1.04600
Cu1158     Cu  0.26383198  0.01355017  0.95394215     1.04300
C1159       C  0.26741598  0.03379085  0.91197477     0.93000
C1160       C  0.26801559  0.05913092  0.98963409     0.92200
C1161       C  0.33994059  0.03656612  0.95127565     0.84300
C1162       C  0.19474047  0.05139071  0.94998028     0.90600
O1163       O  0.23658487  0.74794561  0.92051542    -0.73200
O1164       O  0.23056031  0.75068882  0.98012432    -0.74100
O1165       O  0.28849953  0.74923262  0.95169110    -0.62800
O1166       O  0.17792182  0.74947399  0.94898598    -0.71200
O1167       O  0.17689411  0.68890961  0.95097042    -0.70700
O1168       O  0.28906118  0.68857873  0.95161597    -0.62000
O1169       O  0.23202794  0.69001688  0.98157918    -0.74500
O1170       O  0.23369652  0.68725529  0.92114261    -0.73300
Cu1171     Cu  0.23333139  0.75130848  0.95028362     1.04600
Cu1172     Cu  0.23289160  0.68646726  0.95137121     1.04300
C1173       C  0.23623977  0.71740302  0.91140798     0.93000
C1174       C  0.23073831  0.72102421  0.99031015     0.92200
C1175       C  0.30634415  0.71915084  0.95177224     0.84300
C1176       C  0.15982943  0.71952539  0.94985389     0.90600
O1177       O  0.01379800  0.00151408  0.55570074    -0.73200
O1178       O  0.01422554  0.99414177  0.61584284    -0.74100
O1179       O  0.01811419  0.94312321  0.58418878    -0.62800
O1180       O  0.99571781  0.55466688  0.58614376    -0.71200
O1181       O  0.44575395  0.55223365  0.58950108    -0.70700
O1182       O  0.47338106  0.94390506  0.58563583    -0.62000
O1183       O  0.47138780  0.99911513  0.61575215    -0.74500
O1184       O  0.46864783  0.00042333  0.55579452    -0.73300
Cu1185     Cu  0.01633207  0.99830318  0.58578191     1.04600
Cu1186     Cu  0.46815364  0.99941365  0.58584560     1.04300
C1187       C  0.49856761  0.00357742  0.54604466     0.93000
C1188       C  0.50191273  0.99965346  0.62497381     0.92200
C1189       C  0.50481168  0.92847041  0.58484334     0.84300
C1190       C  0.47357002  0.57357311  0.58828675     0.90600
O1191       O  0.45476401  0.80424419  0.58628573    -0.73200
O1192       O  0.46146740  0.69341281  0.58600215    -0.74100
O1193       O  0.46213462  0.74800921  0.61602277    -0.62800
O1194       O  0.45471341  0.74954758  0.55602731    -0.71200
O1195       O  0.00417600  0.74856982  0.55286074    -0.70700
O1196       O  0.01004116  0.74946142  0.61292811    -0.62000
O1197       O  0.01122138  0.69329878  0.58329725    -0.74500
O1198       O  0.00203091  0.80417276  0.58264786    -0.73300
Cu1199     Cu  0.45620575  0.74868962  0.58614366     1.04600
Cu1200     Cu  0.00897999  0.74901725  0.58284430     1.04300
C1201       C  0.48353864  0.82410956  0.58504427     0.93000
C1202       C  0.49296715  0.67825288  0.58530719     0.92200
C1203       C  0.49328538  0.75123342  0.62447314     0.84300
C1204       C  0.48376143  0.75184335  0.54542317     0.90600
O1205       O  0.27943287  0.99589529  0.61502664    -0.73200
O1206       O  0.27809628  0.99846846  0.55534880    -0.74100
O1207       O  0.28163885  0.55320616  0.58760246    -0.62800
O1208       O  0.27802165  0.94090586  0.58470139    -0.71200
O1209       O  0.21737658  0.94142351  0.58456152    -0.70700
O1210       O  0.22106662  0.55077336  0.58841586    -0.62000
O1211       O  0.21743166  0.99908919  0.55547762    -0.74500
O1212       O  0.21881464  0.99289309  0.61616677    -0.73300
Cu1213     Cu  0.28022981  0.99714992  0.58520732     1.04600
Cu1214     Cu  0.21541223  0.99624160  0.58584289     1.04300
C1215       C  0.24981640  0.99360930  0.62504516     0.93000
C1216       C  0.24783743  0.99922988  0.54590438     0.92200
C1217       C  0.25052164  0.56953263  0.58810224     0.84300
C1218       C  0.24739785  0.92364460  0.58442938     0.90600
O1219       O  0.30115421  0.74691437  0.61564286    -0.73200
O1220       O  0.30193883  0.74678813  0.55486157    -0.74100
O1221       O  0.30254924  0.80207905  0.58493191    -0.62800
O1222       O  0.30311058  0.69210009  0.58571703    -0.71200
O1223       O  0.24250635  0.69062402  0.58664954    -0.70700
O1224       O  0.24192377  0.80311773  0.58429475    -0.62000
O1225       O  0.24126180  0.74543782  0.55576552    -0.74500
O1226       O  0.24045722  0.74909826  0.61507247    -0.73300
Cu1227     Cu  0.30429268  0.74701178  0.58529102     1.04600
Cu1228     Cu  0.23943154  0.74701637  0.58542144     1.04300
C1229       C  0.27034232  0.74827126  0.62478201     0.93000
C1230       C  0.27103870  0.74597345  0.54585510     0.92200
C1231       C  0.27267257  0.82012896  0.58445801     0.84300
C1232       C  0.27340616  0.67381762  0.58647674     0.90600
C1233       C  0.27489739  0.86090442  0.58424078    -0.16600
C1234       C  0.24537223  0.88288369  0.58409713    -0.31800
H1235       H  0.30196963  0.87317592  0.58443697     0.12400
H1236       H  0.21831184  0.87057566  0.58395576     0.13000
C1237       C  0.24732711  0.61030705  0.58814079    -0.16600
C1238       C  0.27625554  0.63303871  0.58704550    -0.31800
H1239       H  0.21999788  0.62192402  0.58878248     0.12400
H1240       H  0.30355292  0.62133815  0.58639722     0.13000
C1241       C  0.50844058  0.88783597  0.58451576    -0.16600
C1242       C  0.47964103  0.86472641  0.58528117    -0.31800
H1243       H  0.53592492  0.87663436  0.58368090     0.12400
H1244       H  0.93766764  0.86965088  0.58506047     0.13000
C1245       C  0.46841970  0.61410434  0.58795913    -0.16600
C1246       C  0.49679834  0.63764158  0.58578283    -0.31800
H1247       H  0.44079328  0.62472362  0.58935053     0.12400
H1248       H  0.01451824  0.62178674  0.58347462     0.13000
C1249       C  0.36937028  0.69167726  0.94993156    -0.16600
C1250       C  0.34719905  0.72094461  0.95203569    -0.31800
H1251       H  0.35726742  0.66478883  0.94799412     0.12400
H1252       H  0.35945972  0.74782787  0.95368556     0.13000
C1253       C  0.09704463  0.69156533  0.95055733    -0.16600
C1254       C  0.11893656  0.72131731  0.94975136    -0.31800
H1255       H  0.10947279  0.66456133  0.95097567     0.12400
H1256       H  0.10647605  0.74828429  0.94906581     0.13000
C1257       C  0.40533735  0.05637301  0.95031171    -0.16600
C1258       C  0.38012191  0.02962449  0.95118696    -0.31800
H1259       H  0.37753392  0.58450503  0.95241293     0.12400
H1260       H  0.38917255  0.00133663  0.95209690     0.13000
C1261       C  0.13151094  0.02514938  0.94985843    -0.16600
C1262       C  0.15411955  0.05460281  0.94915151    -0.31800
H1263       H  0.12739769  0.58561194  0.94966973     0.12400
H1264       H  0.14257540  0.08190957  0.94784006     0.13000
C1265       C  0.37408589  0.64387757  0.17070012    -0.13600
C1266       C  0.39294462  0.64775872  0.18873471     0.08600
C1267       C  0.37353447  0.64685908  0.20678566    -0.13600
C1268       C  0.33558273  0.65050732  0.20655390    -0.13600
C1269       C  0.31752950  0.65455224  0.18827206     0.08600
C1270       C  0.33619701  0.64774667  0.17043963    -0.13600
H1271       H  0.38881539  0.64474569  0.15664733     0.12600
H1272       H  0.38781617  0.65011587  0.22081625     0.12600
H1273       H  0.32133334  0.65591767  0.22041785     0.12600
H1274       H  0.32242279  0.65094985  0.15622448     0.12600
C1275       C  0.08580147  0.79536846  0.20243553    -0.13600
C1276       C  0.06748266  0.79092851  0.18428072     0.08600
C1277       C  0.08679883  0.79451203  0.16630419    -0.13600
C1278       C  0.12492905  0.79551550  0.16656174    -0.13600
C1279       C  0.14343080  0.79273144  0.18479060     0.08600
C1280       C  0.12391818  0.79626391  0.20269150    -0.13600
H1281       H  0.07118808  0.79214340  0.21643446     0.12600
H1282       H  0.07297038  0.79059045  0.15219440     0.12600
H1283       H  0.13967058  0.79224282  0.15264168     0.12600
H1284       H  0.13787684  0.79360538  0.21688400     0.12600
C1285       C  0.41161798  0.95457211  0.20239488    -0.13600
C1286       C  0.43074051  0.95582351  0.18424673     0.08600
C1287       C  0.41113016  0.95627266  0.16628372    -0.13600
C1288       C  0.37388765  0.96444254  0.16652805    -0.13600
C1289       C  0.35649926  0.97099132  0.18475761     0.08600
C1290       C  0.37447716  0.96309341  0.20269062    -0.13600
H1291       H  0.42642648  0.95434540  0.21639453     0.12600
H1292       H  0.42556713  0.95737482  0.15214760     0.12600
H1293       H  0.36007194  0.97044098  0.15258575     0.12600
H1294       H  0.36111202  0.96802039  0.21686735     0.12600
C1295       C  0.10517330  0.60296926  0.17611010    -0.13600
C1296       C  0.10485586  0.09425871  0.18840571     0.08600
C1297       C  0.12283685  0.09835931  0.20665893    -0.13600
C1298       C  0.16045341  0.10447796  0.20684252    -0.13600
C1299       C  0.17977799  0.10532392  0.18877435     0.08600
C1300       C  0.14310837  0.60697158  0.17653664    -0.13600
H1301       H  0.09134589  0.60275927  0.16182120     0.12600
H1302       H  0.10896281  0.09175313  0.22053815     0.12600
H1303       H  0.17499063  0.10164199  0.22085053     0.12600
H1304       H  0.15780756  0.60916093  0.16251141     0.12600
C1305       C  0.23192541  0.69466722  0.02470747    -0.16600
C1306       C  0.22950788  0.72369284  0.01230392    -0.31800
H1307       H  0.23472093  0.66730664  0.01866188     0.12400
H1308       H  0.22706047  0.75097740  0.01849490     0.13000
C1309       C  0.26982748  0.04068743  0.02502120    -0.16600
C1310       C  0.26920380  0.06741061  0.01125054    -0.31800
H1311       H  0.25383387  0.49871976  0.02279835     0.12400
H1312       H  0.27046873  0.09577573  0.01584736     0.13000
C1313       C  0.36802482  0.69248339  0.08687150    -0.16600
C1314       C  0.34334287  0.71987287  0.08584150    -0.31800
H1315       H  0.35845524  0.66437542  0.08794063     0.12400
H1316       H  0.35302109  0.74792322  0.08459957     0.13000
C1317       C  0.09384130  0.72217445  0.08427430    -0.16600
C1318       C  0.11751218  0.69390117  0.08566502    -0.31800
H1319       H  0.10429412  0.74996565  0.08330461     0.12400
H1320       H  0.10701103  0.66613655  0.08680391     0.13000
C1321       C  0.48057475  0.71098542  0.02445682    -0.16600
C1322       C  0.48094122  0.68201680  0.01222001    -0.31800
H1323       H  0.48024709  0.73841388  0.01805417     0.12400
H1324       H  0.98037454  0.65384325  0.01778156     0.13000
C1325       C  0.41041830  0.02753878  0.08575129    -0.16600
C1326       C  0.38740835  0.05613739  0.08557664    -0.31800
H1327       H  0.39915109  0.00001976  0.08579409     0.12400
H1328       H  0.37771640  0.49970886  0.08932335     0.13000
C1329       C  0.13739428  0.02895707  0.08573271    -0.16600
C1330       C  0.16024844  0.05749153  0.08723950    -0.31800
H1331       H  0.14886272  0.00165499  0.08433547     0.12400
H1332       H  0.13240342  0.58508764  0.08870981     0.13000
C1333       C  0.52367881  0.05235918  0.02485593    -0.16600
C1334       C  0.51807227  0.02604355  0.01147821    -0.31800
H1335       H  0.52749162  0.08043395  0.01979642     0.12400
H1336       H  0.99872119  0.51225334  0.01810169     0.13000
C1337       C  0.29670728  0.74585706  0.51126015    -0.16600
C1338       C  0.26809903  0.74606968  0.52387140    -0.31800
H1339       H  0.32443161  0.74489888  0.51704841     0.12400
H1340       H  0.24053879  0.74657161  0.51781777     0.13000
C1341       C  0.26349343  0.88613932  0.45136107    -0.16600
C1342       C  0.29173336  0.86229944  0.45059294    -0.31800
H1343       H  0.23558850  0.87594520  0.45186178     0.12400
H1344       H  0.31953890  0.87274520  0.44982756     0.13000
C1345       C  0.29656429  0.61188850  0.45021751    -0.16600
C1346       C  0.26878084  0.63612342  0.45066349    -0.31800
H1347       H  0.32447022  0.62195453  0.44908763     0.12400
H1348       H  0.24091460  0.62602406  0.45198698     0.13000
C1349       C  0.27907837  0.99789598  0.51292060    -0.16600
C1350       C  0.24791864  0.00014663  0.52376012    -0.31800
H1351       H  0.31219283  0.49826527  0.52210381     0.12400
H1352       H  0.22171044  0.00228743  0.51622642     0.13000
C1353       C  0.50942356  0.75566712  0.51100316    -0.16600
C1354       C  0.48037836  0.75288902  0.52337241    -0.31800
H1355       H  0.53685943  0.75682114  0.51716339     0.12400
H1356       H  0.94291799  0.74595980  0.51591382     0.13000
C1357       C  0.49891878  0.87344888  0.45078029    -0.16600
C1358       C  0.46914444  0.89511312  0.45033399    -0.31800
H1359       H  0.01544064  0.88045810  0.45127283     0.12400
H1360       H  0.44217839  0.88268601  0.44963911     0.13000
C1361       C  0.47760619  0.62253680  0.45069930    -0.16600
C1362       C  0.50615587  0.64557114  0.44841571    -0.31800
H1363       H  0.45041548  0.63407917  0.45247344     0.12400
H1364       H  0.02396242  0.62854234  0.44528317     0.13000
C1365       C  0.46785152  0.00530716  0.51285005    -0.16600
C1366       C  0.49858136  0.00507808  0.52398131    -0.31800
H1367       H  0.44121057  0.00431909  0.52003380     0.12400
H1368       H  0.92913037  0.49439444  0.52082325     0.13000
C1369       C  0.26519668  0.76815506  0.27591054    -0.13600
C1370       C  0.24487482  0.74606639  0.28911875     0.08600
C1371       C  0.22086776  0.71981461  0.28120725    -0.13600
C1372       C  0.21761982  0.71541823  0.26057205    -0.13600
C1373       C  0.23814859  0.73731903  0.24735754     0.08600
C1374       C  0.26179793  0.76390008  0.25527256    -0.13600
H1375       H  0.28384631  0.78865973  0.28151498     0.12600
H1376       H  0.20487778  0.70225097  0.29097819     0.12600
H1377       H  0.19914389  0.69474285  0.25498225     0.12600
H1378       H  0.27798107  0.78130032  0.24551157     0.12600
C1379       C  0.19190288  0.89998348  0.36823809    -0.13600
C1380       C  0.19833531  0.91821026  0.35007953     0.08600
C1381       C  0.19412731  0.89932736  0.33213750    -0.13600
C1382       C  0.19043152  0.86135370  0.33248103    -0.13600
C1383       C  0.19151702  0.84240777  0.35075545     0.08600
C1384       C  0.18840959  0.86193177  0.36857513    -0.13600
H1385       H  0.19550758  0.91420130  0.38221846     0.12600
H1386       H  0.19949377  0.91298855  0.31800771     0.12600
H1387       H  0.19327101  0.84661570  0.31859597     0.12600
H1388       H  0.18968086  0.84767512  0.38280594     0.12600
C1389       C  0.33235688  0.60845564  0.33052945    -0.13600
C1390       C  0.33347425  0.59020309  0.34898797     0.08600
C1391       C  0.33814999  0.61013425  0.36653879    -0.13600
C1392       C  0.33415378  0.64799060  0.36603371    -0.13600
C1393       C  0.32589019  0.66549816  0.34795454     0.08600
C1394       C  0.32825880  0.64633288  0.33001573    -0.13600
H1395       H  0.32825835  0.59323828  0.31690241     0.12600
H1396       H  0.33861191  0.59622640  0.38089005     0.12600
H1397       H  0.33208607  0.66266224  0.37997589     0.12600
H1398       H  0.32155499  0.65969406  0.31598973     0.12600
C1399       C  0.26660656  0.98227610  0.27624633    -0.13600
C1400       C  0.26922571  0.01208157  0.28920530     0.08600
C1401       C  0.25241504  0.54243060  0.28340251    -0.13600
C1402       C  0.25025857  0.54758339  0.26275411    -0.13600
C1403       C  0.26714304  0.02379334  0.24756935     0.08600
C1404       C  0.26495660  0.98813740  0.25557368    -0.13600
H1405       H  0.26519022  0.95460811  0.28213613     0.12600
H1406       H  0.24894264  0.56579127  0.29307467     0.12600
H1407       H  0.24495811  0.57472896  0.25680829     0.12600
H1408       H  0.26270176  0.96477482  0.24581280     0.12600
C1409       C  0.94114853  0.75020588  0.27619820    -0.13600
C1410       C  0.47728684  0.74380121  0.28866486     0.08600
C1411       C  0.50921894  0.73160382  0.27912895    -0.13600
C1412       C  0.50895995  0.72377381  0.25874576    -0.13600
C1413       C  0.47703896  0.72913507  0.24750193     0.08600
C1414       C  0.94272926  0.74497806  0.25556033    -0.13600
H1415       H  0.91579287  0.75921136  0.28296593     0.12600
H1416       H  0.53422305  0.72768068  0.28753325     0.12600
H1417       H  0.53394007  0.71455437  0.25165756     0.12600
H1418       H  0.91845570  0.74997178  0.24670126     0.12600
C1419       C  0.91410262  0.87011557  0.32566944    -0.13600
C1420       C  0.42060599  0.85201628  0.34609759     0.08600
C1421       C  0.41217424  0.87020639  0.36382275    -0.13600
C1422       C  0.41038092  0.90836783  0.36384232    -0.13600
C1423       C  0.41745121  0.92804510  0.34618320     0.08600
C1424       C  0.91122294  0.90813929  0.32531012    -0.08800
H1425       H  0.92251331  0.85608640  0.31223689     0.12600
H1426       H  0.41234479  0.85554379  0.37795053     0.12600
H1427       H  0.40993351  0.92233117  0.37804217     0.12600
H1428       H  0.91845426  0.92266633  0.31168869     0.12600
C1429       C  0.03827794  0.60666869  0.33744779    -0.13600
C1430       C  0.53676427  0.58994863  0.35283238     0.08600
C1431       C  0.53850045  0.60901656  0.37081034    -0.13600
C1432       C  0.54096136  0.64697951  0.37042677    -0.13600
C1433       C  0.54132341  0.66553997  0.35206735     0.08600
C1434       C  0.04038855  0.64472788  0.33682131    -0.13600
H1435       H  0.03990699  0.59155197  0.32363384     0.12600
H1436       H  0.53297151  0.59515786  0.38486579     0.12600
H1437       H  0.53691752  0.66185950  0.38418028     0.12600
H1438       H  0.04317057  0.65845394  0.32249422     0.12600
C1439       C  0.02613401  0.99269783  0.27951084    -0.13600
C1440       C  0.50323989  0.01461671  0.28946516     0.08600
C1441       C  0.45714519  0.52152834  0.28017302    -0.13600
C1442       C  0.46052359  0.52554145  0.25946839    -0.13600
C1443       C  0.51123675  0.01947564  0.24749284     0.08600
C1444       C  0.03108834  0.99587526  0.25882641    -0.13600
H1445       H  0.04270260  0.97325670  0.28776760     0.12600
H1446       H  0.43600085  0.53681992  0.28778612     0.12600
H1447       H  0.44170785  0.54357105  0.25171501     0.12600
H1448       H  0.05126574  0.97867475  0.25166737     0.12600
C1449       C  0.38923811  0.64432186  0.86480139    -0.13600
C1450       C  0.40741046  0.65072517  0.84665494     0.08600
C1451       C  0.38745450  0.65103584  0.82884628    -0.13600
C1452       C  0.34941602  0.65331104  0.82959503    -0.13600
C1453       C  0.33171750  0.65473964  0.84813160     0.08600
C1454       C  0.35122350  0.64694513  0.86559576    -0.13600
H1455       H  0.40438937  0.64425269  0.87869048     0.12600
H1456       H  0.40115814  0.65627059  0.81474730     0.12600
H1457       H  0.33457645  0.65963741  0.81601074     0.12600
H1458       H  0.33782394  0.64827518  0.88001307     0.12600
C1459       C  0.09623091  0.78391935  0.86951743    -0.13600
C1460       C  0.07748000  0.78086654  0.85143090     0.08600
C1461       C  0.09580964  0.78738566  0.83338381    -0.13600
C1462       C  0.13379423  0.79060966  0.83327062    -0.13600
C1463       C  0.15314634  0.78686915  0.85118716     0.08600
C1464       C  0.13420712  0.78721271  0.86939198    -0.13600
H1465       H  0.08231024  0.77850265  0.88353127     0.12600
H1466       H  0.08153161  0.78468805  0.81931531     0.12600
H1467       H  0.14812866  0.78978811  0.81910584     0.12600
H1468       H  0.14888042  0.78374608  0.88331962     0.12600
C1469       C  0.35797784  0.45279595  0.83580513    -0.13600
C1470       C  0.35747886  0.95809561  0.85347131     0.08600
C1471       C  0.37674807  0.95844957  0.87152241    -0.13600
C1472       C  0.41421118  0.96559623  0.87136461    -0.13600
C1473       C  0.43215280  0.97137177  0.85314702     0.08600
C1474       C  0.39455094  0.46361696  0.83585309    -0.13600
H1475       H  0.34350422  0.45269376  0.82170363     0.12600
H1476       H  0.36209959  0.95985183  0.88557336     0.12600
H1477       H  0.42791249  0.97147687  0.88529763     0.12600
H1478       H  0.40796658  0.47005299  0.82181592     0.12600
C1479       C  0.11453188  0.61305464  0.83415454    -0.13600
C1480       C  0.10060680  0.09088464  0.84409262     0.08600
C1481       C  0.11821749  0.09769091  0.86225228    -0.13600
C1482       C  0.15615082  0.09454855  0.86344480    -0.13600
C1483       C  0.17617471  0.08556293  0.84636391     0.08600
C1484       C  0.15144333  0.60346896  0.83506428    -0.13600
H1485       H  0.10154111  0.61493733  0.81966263     0.12600
H1486       H  0.10253859  0.09902584  0.87597533     0.12600
H1487       H  0.16905453  0.09404511  0.87799056     0.12600
H1488       H  0.16648731  0.59943296  0.82130881     0.12600
C1489       C  0.28462161  0.74016588  0.75894290    -0.13600
C1490       C  0.25327078  0.73667337  0.74707739     0.08600
C1491       C  0.21942953  0.72936552  0.75624538    -0.13600
C1492       C  0.21712128  0.72509932  0.77701602    -0.13600
C1493       C  0.24839596  0.72937451  0.78890809     0.08600
C1494       C  0.28209152  0.73721076  0.77971276    -0.13600
H1495       H  0.31097421  0.74576901  0.75213521     0.12600
H1496       H  0.19498889  0.72628019  0.74730350     0.12600
H1497       H  0.19084097  0.71921086  0.78382943     0.12600
H1498       H  0.30657389  0.74049501  0.78860268     0.12600
C1499       C  0.33342324  0.88824818  0.67028305    -0.13600
C1500       C  0.32700387  0.90768968  0.68783603     0.08600
C1501       C  0.32955768  0.88975733  0.70634628    -0.13600
C1502       C  0.33129281  0.85167067  0.70709619    -0.13600
C1503       C  0.33054510  0.83184687  0.68932346     0.08600
C1504       C  0.33544604  0.85017004  0.67104906    -0.13600
H1505       H  0.33117503  0.90177741  0.65588326     0.12600
H1506       H  0.32431721  0.90452993  0.72000967     0.12600
H1507       H  0.32708541  0.83785891  0.72129480     0.12600
H1508       H  0.33452376  0.83513801  0.65719016     0.12600
C1509       C  0.18886289  0.60155932  0.66334660    -0.13600
C1510       C  0.18486057  0.58369634  0.68181045     0.08600
C1511       C  0.17610004  0.60395488  0.69879484    -0.13600
C1512       C  0.17990581  0.64190381  0.69821995    -0.13600
C1513       C  0.19204930  0.65894842  0.68061830     0.08600
C1514       C  0.19300959  0.63938177  0.66278648    -0.13600
H1515       H  0.19569429  0.58609601  0.65011804     0.12600
H1516       H  0.17302431  0.59039747  0.71314909     0.12600
H1517       H  0.17915335  0.65690715  0.71209154     0.12600
H1518       H  0.20243378  0.65237903  0.64910931     0.12600
C1519       C  0.27437630  0.53036870  0.75948474    -0.13600
C1520       C  0.26239241  0.00015362  0.74792677     0.08600
C1521       C  0.23844313  0.97993737  0.76022748    -0.13600
C1522       C  0.23939175  0.98379578  0.78099629    -0.13600
C1523       C  0.26414894  0.00812847  0.78992164     0.08600
C1524       C  0.27359927  0.53405618  0.78025442    -0.13600
H1525       H  0.29393321  0.54643633  0.75097767     0.12600
H1526       H  0.21879579  0.96126658  0.75380640     0.12600
H1527       H  0.22044409  0.96799414  0.79004974     0.12600
H1528       H  0.29270042  0.55269215  0.78717501     0.12600
C1529       C  0.52827738  0.74422717  0.75865218    -0.13600
C1530       C  0.98851220  0.73092589  0.74599875     0.08600
C1531       C  0.98945955  0.69634020  0.75529138    -0.13600
C1532       C  0.98968536  0.69322920  0.77614110    -0.13600
C1533       C  0.98765509  0.72461161  0.78807701     0.08600
C1534       C  0.52740697  0.73952601  0.77945597    -0.13600
H1535       H  0.55443352  0.74486931  0.75102608     0.12600
H1536       H  0.99052871  0.67174430  0.74639326     0.12600
H1537       H  0.99082871  0.66625121  0.78294727     0.12600
H1538       H  0.55292604  0.73704901  0.78754522     0.12600
C1539       C  0.91348169  0.88075328  0.66984796    -0.13600
C1540       C  0.43417965  0.91555473  0.68762495     0.08600
C1541       C  0.42964961  0.89582047  0.70545573    -0.13600
C1542       C  0.42737791  0.85774433  0.70497100    -0.13600
C1543       C  0.43015403  0.83965870  0.68668362     0.08600
C1544       C  0.90990611  0.84277962  0.66974665    -0.13600
H1545       H  0.91656179  0.89530095  0.65578154     0.12600
H1546       H  0.43326260  0.90917664  0.71968561     0.12600
H1547       H  0.42951762  0.84247891  0.71885888     0.12600
H1548       H  0.91110273  0.82877498  0.65556990     0.12600
C1549       C  0.06908599  0.60138634  0.69838434    -0.13600
C1550       C  0.56144991  0.58720131  0.68635918     0.08600
C1551       C  0.56539139  0.60554299  0.66806934    -0.13600
C1552       C  0.56688071  0.64357388  0.66773503    -0.13600
C1553       C  0.56417308  0.66264200  0.68569038     0.08600
C1554       C  0.06974631  0.63949692  0.69789872    -0.13600
H1555       H  0.06912344  0.58746962  0.71273500     0.12600
H1556       H  0.56112249  0.59117548  0.65418823     0.12600
H1557       H  0.56364019  0.65782558  0.65359744     0.12600
H1558       H  0.07013150  0.65411680  0.71189740     0.12600
C1559       C  0.01305368  0.97401651  0.75915755    -0.13600
C1560       C  0.99442025  0.51517818  0.74849645     0.08600
C1561       C  0.47111567  0.54064934  0.75850406    -0.13600
C1562       C  0.47391139  0.54724516  0.77895659    -0.13600
C1563       C  0.00057864  0.00933580  0.78913678     0.08600
C1564       C  0.01840320  0.98022014  0.77953979    -0.13600
H1565       H  0.02757454  0.95170853  0.75213758     0.12600
H1566       H  0.45324188  0.55793441  0.74965603     0.12600
H1567       H  0.45780687  0.56910602  0.78535442     0.12600
H1568       H  0.03668046  0.96231617  0.78774856     0.12600
O1569       O  0.51491157  0.48262961  0.65858993    -0.73200
O1570       O  0.52542458  0.98874290  0.71683646    -0.74100
O1571       O  0.47808613  0.44270578  0.68928805    -0.62800
O1572       O  0.56086703  0.02789942  0.68594342    -0.71200
O1573       O  0.99098975  0.05026046  0.68517998    -0.70700
O1574       O  0.92607640  0.47929661  0.69087108    -0.62000
O1575       O  0.96069529  0.00895738  0.71658765    -0.74500
O1576       O  0.95923703  0.51432218  0.65774195    -0.73300
Cu1577     Cu  0.51537960  0.48209451  0.68888551     1.04600
Cu1578     Cu  0.95695555  0.00813628  0.68662232     1.04300
C1579       C  0.98262550  0.49530393  0.64823457     0.93000
C1580       C  0.50257963  0.00985046  0.72554536     0.92200
C1581       C  0.44357541  0.44794604  0.68949299     0.84300
C1582       C  0.02578868  0.04743021  0.68560581     0.90600
O1583       O  0.98455028  0.18643194  0.68856725    -0.73200
O1584       O  0.91887282  0.27379996  0.69108813    -0.74100
O1585       O  0.95018913  0.23174857  0.65965967    -0.62800
O1586       O  0.95311063  0.22752222  0.71997704    -0.71200
O1587       O  0.51739983  0.26836587  0.71998749    -0.70700
O1588       O  0.51557586  0.27240457  0.65979013    -0.62000
O1589       O  0.48072501  0.31213281  0.69079352    -0.74500
O1590       O  0.55247597  0.23086446  0.68879004    -0.73300
Cu1591     Cu  0.94987862  0.22861891  0.68984626     1.04600
Cu1592     Cu  0.51796844  0.27255876  0.68988506     1.04300
C1593       C  0.01937625  0.18975524  0.68808521     0.93000
C1594       C  0.93466872  0.30485420  0.69173195     0.92200
C1595       C  0.97577221  0.24865167  0.65037648     0.84300
C1596       C  0.49390975  0.24839071  0.72916312     0.90600
O1597       O  0.75265829  0.44338157  0.68923124    -0.73200
O1598       O  0.68309318  0.02454200  0.69143886    -0.74100
O1599       O  0.71457607  0.48437720  0.65935228    -0.62800
O1600       O  0.72008436  0.48662008  0.71944312    -0.71200
O1601       O  0.76688363  0.52511171  0.71743935    -0.70700
O1602       O  0.76436362  0.51917652  0.65772062    -0.62000
O1603       O  0.73053255  0.06207997  0.68735336    -0.74500
O1604       O  0.80105245  0.48030363  0.68848104    -0.73300
Cu1605     Cu  0.71580936  0.48370433  0.68947029     1.04600
Cu1606     Cu  0.76732465  0.52334532  0.68749225     1.04300
C1607       C  0.78727781  0.44830602  0.68895704     0.93000
C1608       C  0.69628355  0.05665701  0.68983794     0.92200
C1609       C  0.73853498  0.50185898  0.64912872     0.84300
C1610       C  0.74394045  0.50681721  0.72793873     0.90600
O1611       O  0.68880993  0.22809365  0.69109510    -0.73200
O1612       O  0.75846327  0.31113139  0.69194826    -0.74100
O1613       O  0.72506099  0.27008918  0.66128561    -0.62800
O1614       O  0.72311488  0.26729975  0.72169467    -0.71200
O1615       O  0.77220143  0.23151286  0.72117412    -0.70700
O1616       O  0.77406495  0.23414883  0.66147091    -0.62000
O1617       O  0.80761160  0.27521804  0.69170934    -0.74500
O1618       O  0.73720653  0.19113761  0.69106371    -0.73300
Cu1619     Cu  0.72230195  0.27068002  0.69150378     1.04600
Cu1620     Cu  0.77437137  0.23156476  0.69136111     1.04300
C1621       C  0.70253634  0.19617876  0.69124318     0.93000
C1622       C  0.79312345  0.30693363  0.69169125     0.92200
C1623       C  0.75006421  0.25257786  0.65194024     0.84300
C1624       C  0.74728470  0.24823358  0.73086866     0.90600
O1625       O  0.98926363  0.04230857  0.81927231    -0.73200
O1626       O  0.99758991  0.05723548  0.87870691    -0.74100
O1627       O  0.54203451  0.10032062  0.84666559    -0.62800
O1628       O  0.95132026  0.01550849  0.85305460    -0.71200
O1629       O  0.97969273  0.48681950  0.85328492    -0.70700
O1630       O  0.55926039  0.54919576  0.85195950    -0.62000
O1631       O  0.01953350  0.52630284  0.88197373    -0.74500
O1632       O  0.02329048  0.51588337  0.82253916    -0.73300
Cu1633     Cu  0.99214108  0.05137295  0.84889166     1.04600
Cu1634     Cu  0.02291708  0.51953075  0.85241544     1.04300
C1635       C  0.00450088  0.53747048  0.81150583     0.93000
C1636       C  0.00217774  0.55261683  0.89013452     0.92200
C1637       C  0.55566131  0.58380448  0.85045005     0.84300
C1638       C  0.94783702  0.50054406  0.85202329     0.90600
O1639       O  0.47964211  0.24560591  0.82606789    -0.73200
O1640       O  0.48343216  0.22974492  0.88552247    -0.74100
O1641       O  0.52229288  0.27404795  0.85782542    -0.62800
O1642       O  0.93514947  0.19747520  0.85535131    -0.71200
O1643       O  0.97132703  0.14998421  0.84899349    -0.70700
O1644       O  0.56069420  0.22711150  0.85507718    -0.62000
O1645       O  0.51924402  0.18129970  0.88135606    -0.74500
O1646       O  0.52065739  0.20147706  0.82193774    -0.73300
Cu1647     Cu  0.48020192  0.23938891  0.85596142     1.04600
Cu1648     Cu  0.52146870  0.18982170  0.85150006     1.04300
C1649       C  0.49980413  0.22629892  0.81464100     0.93000
C1650       C  0.50120937  0.20262111  0.89277209     0.92200
C1651       C  0.55467549  0.26130149  0.85726190     0.84300
C1652       C  0.93965411  0.16348116  0.85178879     0.90600
O1653       O  0.73025279  0.49333112  0.82481632    -0.73200
O1654       O  0.73647862  0.49422283  0.88465836    -0.74100
O1655       O  0.69033050  0.52846490  0.85578032    -0.62800
O1656       O  0.77731557  0.46080205  0.85365555    -0.71200
O1657       O  0.82303031  0.00781362  0.85271500    -0.70700
O1658       O  0.74457725  0.08215031  0.84905692    -0.62000
O1659       O  0.78469136  0.05058270  0.88070660    -0.74500
O1660       O  0.78228321  0.03867065  0.82116329    -0.73300
Cu1661     Cu  0.73215105  0.49244786  0.85479052     1.04600
Cu1662     Cu  0.78517144  0.04622971  0.85081391     1.04300
C1663       C  0.74801145  0.51660525  0.81423653     0.93000
C1664       C  0.75329384  0.52051019  0.89302975     0.92200
C1665       C  0.69462687  0.56317911  0.85415611     0.84300
C1666       C  0.80839858  0.47668694  0.85295294     0.90600
O1667       O  0.72535382  0.20279181  0.82452258    -0.73200
O1668       O  0.73041849  0.18859279  0.88450424    -0.74100
O1669       O  0.68780795  0.23127724  0.85779440    -0.62800
O1670       O  0.76777468  0.15892770  0.85120984    -0.71200
O1671       O  0.80695899  0.20499251  0.85477289    -0.70700
O1672       O  0.72624914  0.27851061  0.85780298    -0.62000
O1673       O  0.76649390  0.23744214  0.88593779    -0.74500
O1674       O  0.76738761  0.24649663  0.82661589    -0.73300
Cu1675     Cu  0.72634680  0.19377759  0.85442644     1.04600
Cu1676     Cu  0.76829318  0.24336033  0.85634677     1.04300
C1677       C  0.74607319  0.22673586  0.81618971     0.93000
C1678       C  0.74873127  0.21177947  0.89461868     0.92200
C1679       C  0.69386864  0.26563612  0.85856416     0.84300
C1680       C  0.80033552  0.17096869  0.85234596     0.90600
O1681       O  0.93957090  0.50822114  0.38119205    -0.73200
O1682       O  0.94783492  0.51280962  0.32131436    -0.74100
O1683       O  0.91445803  0.46366821  0.34927310    -0.62800
O1684       O  0.00236917  0.06489322  0.35347665    -0.71200
O1685       O  0.55213504  0.02830047  0.35376166    -0.70700
O1686       O  0.47187481  0.43613817  0.35400169    -0.62000
O1687       O  0.50331636  0.47931592  0.32305524    -0.74500
O1688       O  0.50087456  0.48404331  0.38305762    -0.73300
Cu1689     Cu  0.94185649  0.51117522  0.35121818     1.04600
Cu1690     Cu  0.50387743  0.47986472  0.35318992     1.04300
C1691       C  0.96619427  0.49475190  0.39110653     0.93000
C1692       C  0.97488384  0.49796333  0.31233785     0.92200
C1693       C  0.93248239  0.43380941  0.34980697     0.84300
C1694       C  0.03595862  0.05545991  0.35520630     0.90600
O1695       O  0.56875215  0.22846875  0.35339783    -0.73200
O1696       O  0.49100968  0.30530641  0.35078463    -0.74100
O1697       O  0.53130033  0.27116216  0.38210948    -0.62800
O1698       O  0.52873704  0.26252684  0.32211081    -0.71200
O1699       O  0.98082483  0.21378612  0.32462639    -0.70700
O1700       O  0.97420389  0.22796192  0.38390390    -0.62000
O1701       O  0.93931203  0.25964830  0.35047630    -0.74500
O1702       O  0.01487523  0.18266751  0.35839034    -0.73300
Cu1703     Cu  0.53142907  0.26852622  0.35197338     1.04600
Cu1704     Cu  0.97577696  0.21950719  0.35439658     1.04300
C1705       C  0.04909979  0.18973453  0.35794697     0.93000
C1706       C  0.95072436  0.29254729  0.34964957     0.92200
C1707       C  0.99745374  0.24819159  0.39278910     0.84300
C1708       C  0.00338770  0.23316333  0.31445162     0.90600
O1709       O  0.74579785  0.44535527  0.35296516    -0.73200
O1710       O  0.81891327  0.02634040  0.35172277    -0.74100
O1711       O  0.78276037  0.48803469  0.38194366    -0.62800
O1712       O  0.77398868  0.48985773  0.32191247    -0.71200
O1713       O  0.72626553  0.52720033  0.32447192    -0.70700
O1714       O  0.73105854  0.51974973  0.38400136    -0.62000
O1715       O  0.77312348  0.06613840  0.35445192    -0.74500
O1716       O  0.69541845  0.47950307  0.35377870    -0.73300
Cu1717     Cu  0.78010995  0.48731901  0.35182015     1.04600
Cu1718     Cu  0.72681881  0.52439706  0.35432451     1.04300
C1719       C  0.71101075  0.44834761  0.35335740     0.93000
C1720       C  0.80729819  0.05895858  0.35361016     0.92200
C1721       C  0.75812883  0.50379408  0.39237295     0.84300
C1722       C  0.74940467  0.50992458  0.31380442     0.90600
O1723       O  0.82575086  0.22937498  0.35470887    -0.73200
O1724       O  0.75473896  0.31208997  0.35291906    -0.74100
O1725       O  0.79160407  0.27333801  0.38395259    -0.62800
O1726       O  0.78869699  0.26721070  0.32385757    -0.71200
O1727       O  0.74234846  0.22825776  0.32644128    -0.70700
O1728       O  0.74196042  0.23837030  0.38591368    -0.62000
O1729       O  0.70668166  0.27473795  0.35414956    -0.74500
O1730       O  0.77771575  0.19245459  0.35832662    -0.73300
Cu1731     Cu  0.79177357  0.27208448  0.35378978     1.04600
Cu1732     Cu  0.74058373  0.23209650  0.35626722     1.04300
C1733       C  0.81222744  0.19750107  0.35690468     0.93000
C1734       C  0.72018175  0.30681733  0.35320344     0.92200
C1735       C  0.76716996  0.25675036  0.39432783     0.84300
C1736       C  0.76552578  0.24578678  0.31570898     0.90600
O1737       O  0.51826477  0.51090410  0.48081731    -0.73200
O1738       O  0.50764234  0.50486612  0.42189343    -0.74100
O1739       O  0.50400875  0.06441310  0.45238935    -0.62800
O1740       O  0.51179617  0.45207887  0.45292683    -0.71200
O1741       O  0.94031075  0.44787687  0.45443620    -0.70700
O1742       O  0.93228218  0.05828646  0.45014375    -0.62000
O1743       O  0.93769368  0.50088121  0.42315439    -0.74500
O1744       O  0.94650668  0.50414420  0.48355253    -0.73300
Cu1745     Cu  0.51437676  0.50829677  0.45122786     1.04600
Cu1746     Cu  0.93938801  0.50280005  0.45345231     1.04300
C1747       C  0.97852565  0.50496348  0.49132512     0.93000
C1748       C  0.96714132  0.49797968  0.41289027     0.92200
C1749       C  0.96236631  0.07586120  0.45130958     0.84300
C1750       C  0.96986353  0.42937398  0.45377318     0.90600
O1751       O  0.52629243  0.25697380  0.48502221    -0.73200
O1752       O  0.53569677  0.25795932  0.42453147    -0.74100
O1753       O  0.53351970  0.31250223  0.45474975    -0.62800
O1754       O  0.53087482  0.20243735  0.45475468    -0.71200
O1755       O  0.95860984  0.19639362  0.45261818    -0.70700
O1756       O  0.96131690  0.30876013  0.45198718    -0.62000
O1757       O  0.96388402  0.25151169  0.42271330    -0.74500
O1758       O  0.95335989  0.25264727  0.48183545    -0.73300
Cu1759     Cu  0.53370238  0.25749007  0.45487301     1.04600
Cu1760     Cu  0.95719608  0.25250311  0.45218863     1.04300
C1761       C  0.98136471  0.25120859  0.49307657     0.93000
C1762       C  0.99538469  0.25113507  0.41454982     0.92200
C1763       C  0.99230940  0.32507567  0.45366642     0.84300
C1764       C  0.98896950  0.17885014  0.45382575     0.90600
O1765       O  0.79146982  0.50049887  0.42294583    -0.73200
O1766       O  0.79452062  0.50448053  0.48331603    -0.74100
O1767       O  0.78920201  0.44777816  0.45440618    -0.62800
O1768       O  0.79914144  0.05473891  0.45258507    -0.71200
O1769       O  0.73951412  0.06570883  0.45313494    -0.70700
O1770       O  0.72877416  0.45308177  0.45467939    -0.62000
O1771       O  0.73401550  0.50909884  0.48391232    -0.74500
O1772       O  0.73128700  0.50839733  0.42431553    -0.73300
Cu1773     Cu  0.79556105  0.50252130  0.45306542     1.04600
Cu1774     Cu  0.73102688  0.50890012  0.45410505     1.04300
C1775       C  0.76055027  0.50400975  0.41421749     0.93000
C1776       C  0.76448412  0.50681100  0.49309785     0.92200
C1777       C  0.75754073  0.43299022  0.45479821     0.84300
C1778       C  0.77261379  0.07747308  0.45290739     0.90600
O1779       O  0.80503793  0.25090784  0.48453183    -0.73200
O1780       O  0.79962429  0.25515519  0.42480767    -0.74100
O1781       O  0.80730249  0.30837640  0.45524304    -0.62800
O1782       O  0.79506424  0.19692345  0.45396951    -0.71200
O1783       O  0.73513161  0.20493066  0.45658515    -0.70700
O1784       O  0.74696615  0.31433042  0.45620370    -0.62000
O1785       O  0.73908071  0.25950742  0.42634910    -0.74500
O1786       O  0.74499332  0.25897117  0.48654886    -0.73300
Cu1787     Cu  0.80391398  0.25259101  0.45459380     1.04600
Cu1788     Cu  0.73952450  0.25968793  0.45650384     1.04300
C1789       C  0.77611507  0.25463116  0.49500315     0.93000
C1790       C  0.76865842  0.25756994  0.41616725     0.92200
C1791       C  0.77877419  0.32878998  0.45567764     0.84300
C1792       C  0.76259265  0.18357523  0.45509790     0.90600
O1793       O  0.94513345  0.52221814  0.08623272    -0.73200
O1794       O  0.55510613  0.51095206  0.08405634    -0.74100
O1795       O  0.00168319  0.50824996  0.11492697    -0.62800
O1796       O  0.99906970  0.52656341  0.05498332    -0.71200
O1797       O  0.02455527  0.07124214  0.05775479    -0.70700
O1798       O  0.02230956  0.05853072  0.11660167    -0.62000
O1799       O  0.57997536  0.06394793  0.08815433    -0.74500
O1800       O  0.96728746  0.06248066  0.08677833    -0.73300
Cu1801     Cu  0.99983385  0.51472402  0.08475566     1.04600
Cu1802     Cu  0.02358678  0.06593875  0.08728975     1.04300
C1803       C  0.93092484  0.55384995  0.08852749     0.93000
C1804       C  0.57601139  0.53834098  0.08697798     0.92200
C1805       C  0.00406795  0.53599433  0.12640129     0.84300
C1806       C  0.00330707  0.55925389  0.04818755     0.90600
O1807       O  0.99942383  0.22760150  0.05854246    -0.73200
O1808       O  0.00248743  0.23158021  0.11810699    -0.74100
O1809       O  0.55632505  0.23710173  0.08772383    -0.62800
O1810       O  0.94588867  0.22215867  0.08940482    -0.71200
O1811       O  0.95420100  0.16213340  0.09129383    -0.70700
O1812       O  0.56375135  0.17688148  0.08790449    -0.62000
O1813       O  0.01248256  0.17171179  0.11971058    -0.74500
O1814       O  0.00606410  0.16724933  0.05910690    -0.73300
Cu1815     Cu  0.00077304  0.23133921  0.08827428     1.04600
Cu1816     Cu  0.00936528  0.16705228  0.08952546     1.04300
C1817       C  0.00193655  0.19728055  0.04934826     0.93000
C1818       C  0.00847472  0.20259538  0.12833545     0.92200
C1819       C  0.57742121  0.20909150  0.08783727     0.84300
C1820       C  0.93270151  0.18973278  0.09075901     0.90600
O1821       O  0.77584776  0.08366330  0.11755368    -0.73200
O1822       O  0.77247952  0.07975643  0.05629656    -0.74100
O1823       O  0.71965795  0.08461703  0.08781218    -0.62800
O1824       O  0.82873845  0.08338978  0.08604861    -0.71200
O1825       O  0.80540481  0.50593234  0.09119292    -0.70700
O1826       O  0.69437523  0.51917264  0.08925042    -0.62000
O1827       O  0.75100081  0.50597777  0.06110280    -0.74500
O1828       O  0.74776925  0.51568748  0.11956540    -0.73300
Cu1829     Cu  0.77427007  0.08500747  0.08686774     1.04600
Cu1830     Cu  0.74946594  0.50971691  0.09039437     1.04300
C1831       C  0.75162922  0.54627705  0.12820681     0.93000
C1832       C  0.75430548  0.53379817  0.04976088     0.92200
C1833       C  0.68139084  0.55176382  0.08814338     0.84300
C1834       C  0.82628942  0.53407517  0.08962757     0.90600
O1835       O  0.81329142  0.17305236  0.09250956    -0.73200
O1836       O  0.70241256  0.16257139  0.09235531    -0.74100
O1837       O  0.75824715  0.16238067  0.06259601    -0.62800
O1838       O  0.75683078  0.17230084  0.12240724    -0.71200
O1839       O  0.75287657  0.23268332  0.11903215    -0.70700
O1840       O  0.75128043  0.22243739  0.05934941    -0.62000
O1841       O  0.69653019  0.22277781  0.08963322    -0.74500
O1842       O  0.80669553  0.23300597  0.08859388    -0.73300
Cu1843     Cu  0.75789342  0.16545383  0.09260048     1.04600
Cu1844     Cu  0.75160554  0.22976937  0.08906069     1.04300
C1845       C  0.82738584  0.20500818  0.09047478     0.93000
C1846       C  0.68205501  0.19094965  0.09083257     0.92200
C1847       C  0.75459522  0.19078285  0.05154385     0.84300
C1848       C  0.75530775  0.20412595  0.13009411     0.90600
O1849       O  0.99613967  0.04716288  0.21561425    -0.73200
O1850       O  0.00393897  0.04995343  0.15587760    -0.74100
O1851       O  0.95856118  0.01463494  0.18389385    -0.62800
O1852       O  0.54035710  0.08306783  0.18761570    -0.71200
O1853       O  0.55678852  0.53235157  0.18972541    -0.70700
O1854       O  0.97444556  0.46642726  0.18474162    -0.62000
O1855       O  0.01884424  0.50475645  0.15683463    -0.74500
O1856       O  0.01370296  0.49637307  0.21699486    -0.73300
Cu1857     Cu  0.99861724  0.05048553  0.18565484     1.04600
Cu1858     Cu  0.01801804  0.49907072  0.18695353     1.04300
C1859       C  0.99277560  0.51779164  0.22682574     0.93000
C1860       C  0.00278228  0.53163248  0.14820951     0.92200
C1861       C  0.94297280  0.48121192  0.18377551     0.84300
C1862       C  0.55078497  0.56655992  0.19194995     0.90600
O1863       O  0.99354256  0.23987374  0.21833213    -0.73200
O1864       O  0.99301031  0.23137466  0.15873140    -0.74100
O1865       O  0.95155066  0.20070000  0.19025547    -0.62800
O1866       O  0.53293427  0.27185511  0.18613050    -0.71200
O1867       O  0.57039802  0.22394652  0.18799263    -0.70700
O1868       O  0.98790244  0.15196861  0.19245863    -0.62000
O1869       O  0.02862725  0.18221979  0.16050384    -0.74500
O1870       O  0.02951536  0.19104855  0.22071225    -0.73300
Cu1871     Cu  0.99190549  0.23712829  0.18847834     1.04600
Cu1872     Cu  0.03094763  0.18511026  0.19068329     1.04300
C1873       C  0.01140599  0.21685135  0.22893382     0.93000
C1874       C  0.01017728  0.20535111  0.15020960     0.92200
C1875       C  0.95615733  0.16611432  0.19179246     0.84300
C1876       C  0.56503451  0.25841748  0.18646884     0.90600
O1877       O  0.72908210  0.50636176  0.21758706    -0.73200
O1878       O  0.73077433  0.52002750  0.15831386    -0.74100
O1879       O  0.77132935  0.47934260  0.18598241    -0.62800
O1880       O  0.68707149  0.54660944  0.18978526    -0.71200
O1881       O  0.74299400  0.09949854  0.19078298    -0.70700
O1882       O  0.82819405  0.03077724  0.18909578    -0.62000
O1883       O  0.78888823  0.07316396  0.15999864    -0.74500
O1884       O  0.78251763  0.05863548  0.21977113    -0.73300
Cu1885     Cu  0.72811664  0.51161803  0.18779273     1.04600
Cu1886     Cu  0.78711948  0.06720321  0.19008607     1.04300
C1887       C  0.74671636  0.52887120  0.22841829     0.93000
C1888       C  0.74909748  0.54588123  0.15006607     0.92200
C1889       C  0.80302564  0.49346343  0.18674889     0.84300
C1890       C  0.69068973  0.58108792  0.19185571     0.90600
O1891       O  0.73727701  0.27530625  0.18796201    -0.73200
O1892       O  0.82118058  0.20551587  0.18931983    -0.74100
O1893       O  0.77535968  0.23478377  0.15906463    -0.62800
O1894       O  0.78273964  0.24622780  0.21854203    -0.71200
O1895       O  0.74443758  0.19970320  0.22271101    -0.70700
O1896       O  0.74093341  0.18518269  0.16328061    -0.62000
O1897       O  0.78445646  0.15808835  0.19494476    -0.74500
O1898       O  0.70075551  0.22686100  0.19121472    -0.73300
Cu1899     Cu  0.78061362  0.24205315  0.18860735     1.04600
Cu1900     Cu  0.74124348  0.19086287  0.19321529     1.04300
C1901       C  0.70543421  0.26129429  0.18899483     0.93000
C1902       C  0.81622079  0.17129238  0.19231973     0.92200
C1903       C  0.75719620  0.20816307  0.15182459     0.84300
C1904       C  0.76428754  0.22504902  0.23005613     0.90600
O1905       O  0.02280531  0.06071677  0.98124654    -0.73200
O1906       O  0.01948584  0.06620004  0.92012125    -0.74100
O1907       O  0.96729616  0.07132465  0.95157277    -0.62800
O1908       O  0.57611312  0.06698424  0.95136517    -0.71200
O1909       O  0.55876895  0.52183974  0.95192701    -0.70700
O1910       O  0.94627282  0.52254742  0.95078591    -0.62000
O1911       O  0.00336127  0.52376612  0.92142644    -0.74500
O1912       O  0.00202170  0.51781973  0.98032983    -0.73300
Cu1913     Cu  0.02165521  0.06670702  0.95072696     1.04600
Cu1914     Cu  0.00269887  0.51979896  0.95086278     1.04300
C1915       C  0.00215058  0.54632815  0.99104344     0.93000
C1916       C  0.00174630  0.55413324  0.91206081     0.92200
C1917       C  0.92939754  0.55337765  0.95182760     0.84300
C1918       C  0.57539511  0.55288262  0.95152764     0.90600
O1919       O  0.49877426  0.22384779  0.92603559    -0.73200
O1920       O  0.99970229  0.20532444  0.98542695    -0.74100
O1921       O  0.55524824  0.21718259  0.95572750    -0.62800
O1922       O  0.94329059  0.21146955  0.95596552    -0.71200
O1923       O  0.94413622  0.15142410  0.95170302    -0.70700
O1924       O  0.55581328  0.15689270  0.95238929    -0.62000
O1925       O  0.99917860  0.14502138  0.98213992    -0.74500
O1926       O  0.50238147  0.16381301  0.92166207    -0.73300
Cu1927     Cu  0.99914188  0.21402246  0.95581377     1.04600
Cu1928     Cu  0.99975831  0.14966573  0.95188840     1.04300
C1929       C  0.50088591  0.19634990  0.91448142     0.93000
C1930       C  0.99962748  0.17329897  0.99326454     0.92200
C1931       C  0.57309016  0.18707240  0.95424216     0.84300
C1932       C  0.92612065  0.18116334  0.95382697     0.90600
O1933       O  0.77277579  0.06642803  0.92016372    -0.73200
O1934       O  0.77278989  0.08692599  0.97860103    -0.74100
O1935       O  0.82782042  0.06715568  0.95010018    -0.62800
O1936       O  0.71680214  0.08312487  0.94871836    -0.71200
O1937       O  0.69791215  0.50179335  0.95669942    -0.70700
O1938       O  0.80720907  0.50142155  0.95593738    -0.62000
O1939       O  0.75327345  0.51213708  0.98623434    -0.74500
O1940       O  0.75173488  0.49529310  0.92623386    -0.73300
Cu1941     Cu  0.77281442  0.07800388  0.94919406     1.04600
Cu1942     Cu  0.75252577  0.50058819  0.95649794     1.04300
C1943       C  0.75320192  0.52360505  0.91481262     0.93000
C1944       C  0.75302170  0.54516591  0.99265835     0.92200
C1945       C  0.82565268  0.53074305  0.95369043     0.84300
C1946       C  0.67964503  0.53098086  0.95370824     0.90600
O1947       O  0.75098597  0.24071404  0.92579417    -0.73200
O1948       O  0.75070489  0.24285610  0.98524162    -0.74100
O1949       O  0.80601524  0.23993342  0.95547125    -0.62800
O1950       O  0.69513492  0.24316043  0.95551598    -0.71200
O1951       O  0.69306687  0.18257126  0.95689120    -0.70700
O1952       O  0.80490139  0.17928514  0.95540844    -0.62000
O1953       O  0.75033900  0.18214494  0.98651130    -0.74500
O1954       O  0.74707259  0.18006323  0.92601010    -0.73300
Cu1955     Cu  0.75073885  0.24363313  0.95547871     1.04600
Cu1956     Cu  0.74879384  0.17878414  0.95626198     1.04300
C1957       C  0.74881553  0.21049978  0.91648224     0.93000
C1958       C  0.75087348  0.21311531  0.99532455     0.92200
C1959       C  0.82302892  0.20934939  0.95530474     0.84300
C1960       C  0.67653364  0.21349357  0.95616312     0.90600
O1961       O  0.50675025  0.50709692  0.55628768    -0.73200
O1962       O  0.51792391  0.50344804  0.61656555    -0.74100
O1963       O  0.52131017  0.45145154  0.58548647    -0.62800
O1964       O  0.52797935  0.05907260  0.58640234    -0.71200
O1965       O  0.95035970  0.04911295  0.58647027    -0.70700
O1966       O  0.95044224  0.43640568  0.58875708    -0.62000
O1967       O  0.94828013  0.49195301  0.61858725    -0.74500
O1968       O  0.93561238  0.49197025  0.55940996    -0.73300
Cu1969     Cu  0.51501135  0.50581427  0.58627001     1.04600
Cu1970     Cu  0.94043559  0.49156490  0.58909352     1.04300
C1971       C  0.96303793  0.49739163  0.54799518     0.93000
C1972       C  0.97995559  0.49446503  0.62639397     0.92200
C1973       C  0.98296048  0.42379218  0.58653049     0.84300
C1974       C  0.97924658  0.06888614  0.58734131     0.90600
O1975       O  0.94681911  0.29546324  0.58700514    -0.73200
O1976       O  0.96488966  0.18681734  0.58762186    -0.74100
O1977       O  0.95035359  0.24060372  0.61760806    -0.62800
O1978       O  0.96371462  0.24251166  0.55723116    -0.71200
O1979       O  0.53774190  0.25721411  0.56090675    -0.70700
O1980       O  0.52550262  0.25858222  0.62005015    -0.62000
O1981       O  0.54051095  0.20206467  0.59133908    -0.74500
O1982       O  0.52024937  0.31224014  0.58936849    -0.73300
Cu1983     Cu  0.95437013  0.24094949  0.58722606     1.04600
Cu1984     Cu  0.53305785  0.25782572  0.59055227     1.04300
C1985       C  0.97331485  0.31809673  0.58806223     0.93000
C1986       C  0.99713125  0.17397951  0.58989690     0.92200
C1987       C  0.97834654  0.24737934  0.62845086     0.84300
C1988       C  0.99592218  0.24702650  0.54994741     0.90600
O1989       O  0.76638962  0.50462975  0.61734129    -0.73200
O1990       O  0.76491158  0.50480895  0.55767675    -0.74100
O1991       O  0.75648854  0.06090382  0.58712009    -0.62800
O1992       O  0.76489780  0.44822135  0.58789709    -0.71200
O1993       O  0.70425091  0.44906911  0.58747965    -0.70700
O1994       O  0.69599366  0.05870152  0.58905216    -0.62000
O1995       O  0.70422676  0.50566530  0.55794728    -0.74500
O1996       O  0.70575204  0.50131930  0.61836396    -0.73300
Cu1997     Cu  0.76717461  0.50462075  0.58754232     1.04600
Cu1998     Cu  0.70233015  0.50370727  0.58818588     1.04300
C1999       C  0.73667209  0.50241891  0.62727170     0.93000
C2000       C  0.73454189  0.50565890  0.54832947     0.92200
C2001       C  0.72552860  0.07735035  0.58839565     0.84300
C2002       C  0.73414450  0.43114324  0.58782144     0.90600
O2003       O  0.78175334  0.25117767  0.62075830    -0.73200
O2004       O  0.78271847  0.25448786  0.56018311    -0.74100
O2005       O  0.78570374  0.30792927  0.59103761    -0.62800
O2006       O  0.78132722  0.19815051  0.58987465    -0.71200
O2007       O  0.72069905  0.19895377  0.59055808    -0.70700
O2008       O  0.72517461  0.31138477  0.59024580    -0.62000
O2009       O  0.72202623  0.25569594  0.56073870    -0.74500
O2010       O  0.72119285  0.25569567  0.62037155    -0.73300
Cu2011     Cu  0.78493641  0.25287148  0.59049756     1.04600
Cu2012     Cu  0.72012791  0.25548011  0.59049795     1.04300
C2013       C  0.75111981  0.25327413  0.63001363     0.93000
C2014       C  0.75200399  0.25543552  0.55099743     0.92200
C2015       C  0.75658164  0.32715147  0.59054294     0.84300
C2016       C  0.75093169  0.18100997  0.59000443     0.90600
C2017       C  0.76028970  0.36781144  0.59018194    -0.16600
C2018       C  0.73152112  0.39045927  0.58821740    -0.31800
H2019       H  0.78760056  0.37932921  0.59134127     0.12400
H2020       H  0.70429420  0.37871766  0.58709552     0.13000
C2021       C  0.72287023  0.11815400  0.58915330    -0.16600
C2022       C  0.75238574  0.14019751  0.58937959    -0.31800
H2023       H  0.69575923  0.13029148  0.58962870     0.12400
H2024       H  0.77939057  0.12780141  0.58897448     0.13000
C2025       C  0.99079839  0.38387241  0.58665242    -0.16600
C2026       C  0.96479603  0.35790799  0.58765798    -0.31800
H2027       H  0.01932923  0.37563938  0.58587394     0.12400
H2028       H  0.44888325  0.37044553  0.58828058     0.13000
C2029       C  0.97510198  0.10947970  0.58803004    -0.16600
C2030       C  0.00311736  0.13348098  0.58985991    -0.31800
H2031       H  0.94738484  0.11999924  0.58690137     0.12400
H2032       H  0.54813710  0.12929907  0.59042304     0.13000
C2033       C  0.88518782  0.17975525  0.95385923    -0.16600
C2034       C  0.86393659  0.20990022  0.95510904    -0.31800
H2035       H  0.87225767  0.15307536  0.95276300     0.12400
H2036       H  0.87704261  0.23652574  0.95595552     0.13000
C2037       C  0.61394645  0.18588070  0.95470296    -0.16600
C2038       C  0.63566182  0.21565843  0.95597683    -0.31800
H2039       H  0.62662901  0.15905064  0.95382681     0.12400
H2040       H  0.62319239  0.24261054  0.95656839     0.13000
C2041       C  0.88879981  0.55632812  0.95190615    -0.16600
C2042       C  0.86624724  0.52747669  0.95334229    -0.31800
H2043       H  0.89756507  0.08027330  0.95012838     0.12400
H2044       H  0.87789950  0.50017370  0.95446238     0.13000
C2045       C  0.61609795  0.55615405  0.95113686    -0.16600
C2046       C  0.63894359  0.52768851  0.95350149    -0.31800
H2047       H  0.64243242  0.00398212  0.95192196     0.12400
H2048       H  0.62740602  0.50050696  0.95561541     0.13000
C2049       C  0.90446488  0.13942796  0.17465584    -0.13600
C2050       C  0.92362940  0.14346088  0.19256794     0.08600
C2051       C  0.90482717  0.14174188  0.21078216    -0.13600
C2052       C  0.86677669  0.14394460  0.21089207    -0.13600
C2053       C  0.84810973  0.14770890  0.19278099     0.08600
C2054       C  0.86647271  0.14179174  0.17475195    -0.13600
H2055       H  0.91877967  0.14098317  0.16048990     0.12600
H2056       H  0.91943503  0.14510785  0.22470461     0.12600
H2057       H  0.85274584  0.14865886  0.22489863     0.12600
H2058       H  0.85219471  0.14478968  0.16067164     0.12600
C2059       C  0.61450721  0.28977367  0.20355243    -0.13600
C2060       C  0.59709558  0.28183447  0.18550313     0.08600
C2061       C  0.61722937  0.28203076  0.16771087    -0.13600
C2062       C  0.65528522  0.28317512  0.16845641    -0.13600
C2063       C  0.67286875  0.28372979  0.18700004     0.08600
C2064       C  0.65260008  0.29058611  0.20431898    -0.13600
H2065       H  0.59920427  0.28922898  0.21742460     0.12600
H2066       H  0.60407963  0.27543033  0.15371465     0.12600
H2067       H  0.67068267  0.27737117  0.15500763     0.12600
H2068       H  0.66589617  0.29056332  0.21875829     0.12600
C2069       C  0.89170829  0.45468113  0.20130366    -0.13600
C2070       C  0.90988757  0.45946277  0.18303103     0.08600
C2071       C  0.88963170  0.46184777  0.16534956    -0.13600
C2072       C  0.85203902  0.46767134  0.16636091    -0.13600
C2073       C  0.83508627  0.47039089  0.18502254     0.08600
C2074       C  0.85417291  0.46086537  0.20236485    -0.13600
H2075       H  0.90712769  0.45314532  0.21508709     0.12600
H2076       H  0.90342149  0.46585450  0.15116319     0.12600
H2077       H  0.83737622  0.47513785  0.15288712     0.12600
H2078       H  0.84119961  0.46308122  0.21686188     0.12600
C2079       C  0.62215873  0.10280632  0.17055924    -0.13600
C2080       C  0.58215107  0.59079515  0.19357632     0.08600
C2081       C  0.60080795  0.59205379  0.21176104    -0.13600
C2082       C  0.63841636  0.59833842  0.21183464    -0.13600
C2083       C  0.65720300  0.60217968  0.19367617     0.08600
C2084       C  0.65963671  0.10963706  0.17093933    -0.13600
H2085       H  0.60879104  0.09883050  0.15632037     0.12600
H2086       H  0.58747729  0.58317620  0.22542974     0.12600
H2087       H  0.65342601  0.59346550  0.22553542     0.12600
H2088       H  0.67459824  0.10991674  0.15695339     0.12600
C2089       C  0.75399846  0.18664552  0.02959669    -0.16600
C2090       C  0.75165420  0.21576046  0.01729619    -0.31800
H2091       H  0.75545709  0.15929959  0.02347800     0.12400
H2092       H  0.75054426  0.24307867  0.02354669     0.13000
C2093       C  0.75426287  0.52694304  0.02809712    -0.16600
C2094       C  0.75376115  0.55340150  0.01422226    -0.31800
H2095       H  0.76758064  0.01415784  0.02158615     0.12400
H2096       H  0.75372351  0.58190070  0.01873731     0.13000
C2097       C  0.89241360  0.18338536  0.09161297    -0.16600
C2098       C  0.86774751  0.21070901  0.09017780    -0.31800
H2099       H  0.88286177  0.15535088  0.09317963     0.12400
H2100       H  0.87743892  0.23867892  0.08849862     0.13000
C2101       C  0.61785249  0.21433559  0.08812762    -0.16600
C2102       C  0.64159301  0.18623513  0.09032420    -0.31800
H2103       H  0.62826445  0.24211387  0.08688444     0.12400
H2104       H  0.63106295  0.15851547  0.09172440     0.13000
C2105       C  0.00025082  0.19852826  0.02727909    -0.16600
C2106       C  0.00042670  0.16905137  0.01535264    -0.31800
H2107       H  0.99879529  0.22565072  0.02054231     0.12400
H2108       H  0.50112113  0.14457628  0.02135236     0.13000
C2109       C  0.89037809  0.55819041  0.08926251    -0.16600
C2110       C  0.86685146  0.52951601  0.08959953    -0.31800
H2111       H  0.87963209  0.58590393  0.08954307     0.12400
H2112       H  0.89906801  0.08410113  0.08646871     0.13000
C2113       C  0.61622474  0.53195763  0.08679277    -0.16600
C2114       C  0.64125971  0.55880487  0.08806754    -0.31800
H2115       H  0.62549259  0.50382708  0.08544936     0.12400
H2116       H  0.64888929  0.08621524  0.08972521     0.13000
C2117       C  0.00377092  0.56709135  0.02641840    -0.16600
C2118       C  0.00124451  0.54041644  0.01292008    -0.31800
H2119       H  0.00700075  0.59522964  0.02143175     0.12400
H2120       H  0.51393709  0.99804831  0.01662122     0.13000
C2121       C  0.77930759  0.25390102  0.51702449    -0.16600
C2122       C  0.74992186  0.25635192  0.52897744    -0.31800
H2123       H  0.80639175  0.25105815  0.52350551     0.12400
H2124       H  0.72287990  0.25879684  0.52239118     0.13000
C2125       C  0.75379925  0.39241278  0.45533542    -0.16600
C2126       C  0.78279868  0.36936711  0.45545283    -0.31800
H2127       H  0.72626021  0.38122544  0.45552590     0.12400
H2128       H  0.81035680  0.38050629  0.45519889     0.13000
C2129       C  0.78117040  0.11745760  0.45309912    -0.16600
C2130       C  0.75521666  0.14342660  0.45466935    -0.31800
H2131       H  0.80971122  0.12562507  0.45215965     0.12400
H2132       H  0.72676341  0.13498208  0.45572025     0.13000
C2133       C  0.76512001  0.50651169  0.51519040    -0.16600
C2134       C  0.73419408  0.50664624  0.52624468    -0.31800
H2135       H  0.78318537  0.00231016  0.52223361     0.12400
H2136       H  0.70772153  0.50730485  0.51891201     0.13000
C2137       C  0.97519513  0.24979968  0.51488011    -0.16600
C2138       C  0.00248943  0.24820343  0.52816365    -0.31800
H2139       H  0.94704057  0.25001115  0.52013486     0.12400
H2140       H  0.54427284  0.25508299  0.52237221     0.13000
C2141       C  0.99562901  0.36581269  0.45356356    -0.16600
C2142       C  0.96676952  0.38862847  0.45402794    -0.31800
H2143       H  0.53460381  0.38364977  0.45267366     0.12400
H2144       H  0.93939330  0.37704212  0.45451446     0.13000
C2145       C  0.96077697  0.11662882  0.45168727    -0.16600
C2146       C  0.99048438  0.13807817  0.45356873    -0.31800
H2147       H  0.93400450  0.12935271  0.45044030     0.12400
H2148       H  0.52885081  0.13137727  0.45443464     0.13000
C2149       C  0.98392683  0.50510299  0.51315182    -0.16600
C2150       C  0.95677585  0.49887006  0.52621633    -0.31800
H2151       H  0.01162866  0.50905539  0.51858505     0.12400
H2152       H  0.52510048  0.00632678  0.51666675     0.13000
C2153       C  0.78666073  0.26331342  0.28117343    -0.13600
C2154       C  0.76566196  0.24061342  0.29378815     0.08600
C2155       C  0.74497637  0.21232647  0.28528899    -0.13600
C2156       C  0.74495649  0.20705476  0.26466774    -0.13600
C2157       C  0.76547877  0.23005366  0.25199072     0.08600
C2158       C  0.78649030  0.25815389  0.26048294    -0.13600
H2159       H  0.80298759  0.28526078  0.28727102     0.12600
H2160       H  0.72881042  0.19408598  0.29459442     0.12600
H2161       H  0.72861449  0.18503703  0.25865390     0.12600
H2162       H  0.80265721  0.27631553  0.25113593     0.12600
C2163       C  0.68745478  0.39493194  0.37109937    -0.13600
C2164       C  0.69006704  0.41457749  0.35311104     0.08600
C2165       C  0.68895643  0.39587909  0.33495911    -0.13600
C2166       C  0.69259859  0.35792375  0.33485710    -0.13600
C2167       C  0.69667705  0.33888398  0.35292542     0.08600
C2168       C  0.69085143  0.35693727  0.37100529    -0.13600
H2169       H  0.68891131  0.40907320  0.38522354     0.12600
H2170       H  0.69153207  0.41079473  0.32097151     0.12600
H2171       H  0.69757166  0.34429856  0.32081233     0.12600
H2172       H  0.69449058  0.34252094  0.38506614     0.12600
C2173       C  0.83921730  0.10993953  0.33765182    -0.13600
C2174       C  0.83244947  0.08956499  0.35506442     0.08600
C2175       C  0.83494770  0.10645153  0.37369088    -0.13600
C2176       C  0.83631645  0.14446722  0.37467653    -0.13600
C2177       C  0.83536570  0.16519816  0.35702010     0.08600
C2178       C  0.84089485  0.14800067  0.33865244    -0.13600
H2179       H  0.83693739  0.09721265  0.32315987     0.12600
H2180       H  0.82943027  0.09097072  0.38724066     0.12600
H2181       H  0.83176685  0.15746340  0.38894428     0.12600
H2182       H  0.83984933  0.16376199  0.32488597     0.12600
C2183       C  0.75066749  0.48387647  0.27944041    -0.13600
C2184       C  0.74828900  0.51431795  0.29197891     0.08600
C2185       C  0.76486045  0.05196660  0.28262522    -0.13600
C2186       C  0.76664706  0.05689356  0.26192236    -0.13600
C2187       C  0.74702501  0.52381448  0.25025103     0.08600
C2188       C  0.74935752  0.48855203  0.25869424    -0.13600
H2189       H  0.75298360  0.45655119  0.28570808     0.12600
H2190       H  0.76795638  0.07547051  0.29222751     0.12600
H2191       H  0.77089287  0.08418271  0.25590426     0.12600
H2192       H  0.75092395  0.46472237  0.24922471     0.12600
C2193       C  0.51394673  0.26354497  0.27931539    -0.13600
C2194       C  0.00587922  0.22860425  0.29259456     0.08600
C2195       C  0.00063993  0.19412776  0.28388344    -0.13600
C2196       C  0.00367918  0.18994384  0.26316760    -0.13600
C2197       C  0.01078797  0.22039173  0.25083653     0.08600
C2198       C  0.51455696  0.25874576  0.25862832    -0.13600
H2199       H  0.51609763  0.29093396  0.28526169     0.12600
H2200       H  0.99466581  0.17038542  0.29312293     0.12600
H2201       H  0.99952086  0.16317619  0.25672288     0.12600
H2202       H  0.51724031  0.28252304  0.24896353     0.12600
C2203       C  0.42437625  0.34651969  0.33340787    -0.13600
C2204       C  0.92525941  0.32305399  0.34820505     0.08600
C2205       C  0.91506853  0.34035920  0.36594212    -0.13600
C2206       C  0.90974925  0.37816886  0.36602089    -0.13600
C2207       C  0.91451662  0.39839641  0.34834368     0.08600
C2208       C  0.41764409  0.38406577  0.33409560    -0.08800
H2209       H  0.42982856  0.33395563  0.31912138     0.12600
H2210       H  0.91679713  0.32580649  0.38007301     0.12600
H2211       H  0.90771280  0.39201575  0.38021460     0.12600
H2212       H  0.41842059  0.39972713  0.32028924     0.12600
C2213       C  0.57818662  0.10960284  0.33762799    -0.13600
C2214       C  0.06304567  0.08408981  0.35769939     0.08600
C2215       C  0.06514361  0.10078719  0.37636332    -0.13600
C2216       C  0.07115191  0.13835829  0.37733692    -0.13600
C2217       C  0.07382811  0.15876195  0.35958130     0.08600
C2218       C  0.58648167  0.14679032  0.33857731    -0.13600
H2219       H  0.57434265  0.09714703  0.32316702     0.12600
H2220       H  0.05616398  0.08628495  0.38967787     0.12600
H2221       H  0.06596418  0.15204018  0.39134598     0.12600
H2222       H  0.58777385  0.16234640  0.32474334     0.12600
C2223       C  0.50826933  0.47951312  0.28039871    -0.13600
C2224       C  0.97870418  0.50202393  0.29035511     0.08600
C2225       C  0.97919053  0.03930659  0.27805885    -0.13600
C2226       C  0.98420484  0.04254908  0.25742588    -0.13600
C2227       C  0.98817041  0.51259537  0.24869980     0.08600
C2228       C  0.51147196  0.48331815  0.25962155    -0.13600
H2229       H  0.52724050  0.46175812  0.28822266     0.12600
H2230       H  0.95884473  0.05641498  0.28514382     0.12600
H2231       H  0.96745370  0.06187471  0.24919206     0.12600
H2232       H  0.53278254  0.46833578  0.25196615     0.12600
C2233       C  0.88786087  0.13505709  0.86855331    -0.13600
C2234       C  0.90698845  0.14098847  0.85068161     0.08600
C2235       C  0.88795612  0.14169824  0.83256390    -0.13600
C2236       C  0.84993182  0.14460627  0.83273099    -0.13600
C2237       C  0.83138896  0.14631969  0.85100281     0.08600
C2238       C  0.84986149  0.13784859  0.86872475    -0.13600
H2239       H  0.90230298  0.13475231  0.88266394     0.12600
H2240       H  0.90246323  0.14660577  0.81867153     0.12600
H2241       H  0.83591370  0.15142588  0.81895791     0.12600
H2242       H  0.83578337  0.13936305  0.88294596     0.12600
C2243       C  0.60433335  0.28565470  0.87747824    -0.13600
C2244       C  0.58625485  0.28523658  0.85908729     0.08600
C2245       C  0.60542909  0.29424932  0.84160851    -0.13600
C2246       C  0.64349415  0.29657432  0.84206141    -0.13600
C2247       C  0.66203373  0.28930621  0.85993646     0.08600
C2248       C  0.64238977  0.28788743  0.87791020    -0.13600
H2249       H  0.58982409  0.27835687  0.89106325     0.12600
H2250       H  0.59176498  0.29361163  0.82727816     0.12600
H2251       H  0.65832606  0.29731370  0.82803895     0.12600
H2252       H  0.65638102  0.28190414  0.89180476     0.12600
C2253       C  0.86762235  0.94560902  0.83759692    -0.13600
C2254       C  0.84269877  0.45671656  0.85205980     0.08600
C2255       C  0.86277317  0.45556062  0.86987303    -0.13600
C2256       C  0.89948812  0.46608386  0.86976699    -0.13600
C2257       C  0.91606823  0.47656667  0.85177030     0.08600
C2258       C  0.90548063  0.95009897  0.83752325    -0.13600
H2259       H  0.85329929  0.94598861  0.82344954     0.12600
H2260       H  0.84869943  0.45329906  0.88408163     0.12600
H2261       H  0.91340553  0.47029982  0.88382024     0.12600
H2262       H  0.91960553  0.95299934  0.82335702     0.12600
C2263       C  0.62761703  0.10772153  0.82961244    -0.13600
C2264       C  0.58912473  0.60500992  0.85180757     0.08600
C2265       C  0.60639460  0.60279333  0.87047488    -0.13600
C2266       C  0.64300357  0.59238066  0.87151008    -0.13600
C2267       C  0.66260725  0.58674085  0.85387410     0.08600
C2268       C  0.66516859  0.10138065  0.83076660    -0.13600
H2269       H  0.61424259  0.10499698  0.81528383     0.12600
H2270       H  0.59014791  0.60165250  0.88402392     0.12600
H2271       H  0.65467332  0.58485316  0.88582221     0.12600
H2272       H  0.68005048  0.09468344  0.81727863     0.12600
C2273       C  0.77935700  0.24277074  0.76350569    -0.13600
C2274       C  0.74643567  0.24449900  0.75279990     0.08600
C2275       C  0.71313364  0.24004045  0.76305997    -0.13600
C2276       C  0.71288387  0.23322343  0.78368529    -0.13600
C2277       C  0.74586889  0.23194399  0.79436509     0.08600
C2278       C  0.77903944  0.23718837  0.78414790    -0.13600
H2279       H  0.80535760  0.24595535  0.75588646     0.12600
H2280       H  0.68744805  0.24081731  0.75503854     0.12600
H2281       H  0.68699056  0.22958620  0.79135011     0.12600
H2282       H  0.80478425  0.23634954  0.79212302     0.12600
C2283       C  0.81373238  0.39623531  0.67144626    -0.13600
C2284       C  0.81046417  0.41593496  0.68918122     0.08600
C2285       C  0.81629292  0.39825836  0.70752778    -0.13600
C2286       C  0.81868247  0.36017205  0.70829377    -0.13600
C2287       C  0.81512835  0.34004317  0.69071543     0.08600
C2288       C  0.81631303  0.35819995  0.67221667    -0.13600
H2289       H  0.80884511  0.40955103  0.65718473     0.12600
H2290       H  0.81344000  0.41318345  0.72134319     0.12600
H2291       H  0.81732814  0.34648480  0.72268721     0.12600
H2292       H  0.81308461  0.34297416  0.65852634     0.12600
C2293       C  0.66777804  0.10889719  0.67358003    -0.13600
C2294       C  0.67313640  0.08878217  0.69122474     0.08600
C2295       C  0.67323373  0.10680108  0.70958085    -0.13600
C2296       C  0.67650052  0.14475127  0.70990050    -0.13600
C2297       C  0.67894380  0.16423465  0.69187009     0.08600
C2298       C  0.67088629  0.14688240  0.67388789    -0.13600
H2299       H  0.66776789  0.09521899  0.65929851     0.12600
H2300       H  0.67755316  0.09152708  0.72331300     0.12600
H2301       H  0.68275581  0.15801994  0.72388720     0.12600
H2302       H  0.67274307  0.16179086  0.65987185     0.12600
C2303       C  0.77949656  0.02924569  0.75819226    -0.13600
C2304       C  0.74491753  0.50931570  0.75002470     0.08600
C2305       C  0.72205572  0.48718060  0.76193950    -0.13600
C2306       C  0.72298804  0.48964419  0.78275740    -0.13600
C2307       C  0.74664421  0.51446542  0.79215443     0.08600
C2308       C  0.78208470  0.03188607  0.77896259    -0.13600
H2309       H  0.79778424  0.04557510  0.74901238     0.12600
H2310       H  0.70350347  0.46780320  0.75518509     0.12600
H2311       H  0.70511228  0.47208300  0.79149320     0.12600
H2312       H  0.80233428  0.05011500  0.78521218     0.12600
C2313       C  0.95125558  0.24010465  0.76349290    -0.13600
C2314       C  0.49557752  0.24419662  0.75112383     0.08600
C2315       C  0.52942986  0.24036292  0.76083435    -0.13600
C2316       C  0.53088054  0.23393743  0.78148162    -0.13600
C2317       C  0.49855563  0.23254957  0.79283583     0.08600
C2318       C  0.95419532  0.23495586  0.78417559    -0.13600
H2319       H  0.92478316  0.24630661  0.75706617     0.12600
H2320       H  0.55469415  0.24136036  0.75235932     0.12600
H2321       H  0.55722543  0.23053775  0.78863431     0.12600
H2322       H  0.92987346  0.23717622  0.79335650     0.12600
C2323       C  0.41848428  0.39614657  0.67166917    -0.13600
C2324       C  0.91474561  0.41492113  0.69240336     0.08600
C2325       C  0.91338885  0.39573695  0.71058154    -0.13600
C2326       C  0.91300573  0.35755661  0.71063907    -0.13600
C2327       C  0.91376166  0.33873138  0.69252456     0.08600
C2328       C  0.41988971  0.35802598  0.67198333    -0.13600
H2329       H  0.42181536  0.41036987  0.65751868     0.12600
H2330       H  0.91854688  0.40982245  0.72445447     0.12600
H2331       H  0.91760900  0.34301669  0.72457126     0.12600
H2332       H  0.42403087  0.34369151  0.65807098     0.12600
C2333       C  0.57496559  0.10929573  0.70205815    -0.13600
C2334       C  0.04659879  0.08118083  0.68549927     0.08600
C2335       C  0.04678306  0.10154645  0.66770334    -0.13600
C2336       C  0.04390460  0.13948416  0.66841521    -0.13600
C2337       C  0.04116133  0.15671791  0.68691522     0.08600
C2338       C  0.57191768  0.14721546  0.70326093    -0.13600
H2339       H  0.57524903  0.09331886  0.71576085     0.12600
H2340       H  0.04317822  0.08803724  0.65350823     0.12600
H2341       H  0.03856701  0.15461327  0.65474402     0.12600
H2342       H  0.57020869  0.15976913  0.71782304     0.12600
C2343       C  0.51462154  0.49101122  0.76156964    -0.13600
C2344       C  0.50495091  0.01542218  0.74741144     0.08600
C2345       C  0.97120922  0.02524952  0.75762769    -0.13600
C2346       C  0.97676761  0.03162785  0.77794683    -0.13600
C2347       C  0.49703870  0.52576319  0.79098100     0.08600
C2348       C  0.51725771  0.49747306  0.78206663    -0.13600
H2349       H  0.53075602  0.46922371  0.75512695     0.12600
H2350       H  0.95315600  0.04334565  0.74939259     0.12600
H2351       H  0.96242824  0.05414486  0.78487576     0.12600
H2352       H  0.53518820  0.48028213  0.79093033     0.12600
O2353       O  0.52710398  0.98406027  0.65670923    -0.73200
O2354       O  0.51256535  0.48572581  0.71900083    -0.74100
O2355       O  0.49160632  0.94373448  0.68769553    -0.62800
O2356       O  0.54998056  0.52373406  0.68840477    -0.71200
O2357       O  0.00046425  0.55876125  0.68340970    -0.70700
O2358       O  0.92594384  0.96327273  0.68805630    -0.62000
O2359       O  0.96678804  0.52569547  0.71677628    -0.74500
O2360       O  0.95718201  0.00534463  0.65663029    -0.73300
Cu2361     Cu  0.52781774  0.98455088  0.68686844     1.04600
Cu2362     Cu  0.96155577  0.52092334  0.68721134     1.04300
C2363       C  0.98325128  0.99005076  0.64708509     0.93000
C2364       C  0.48997033  0.50720665  0.72767374     0.92200
C2365       C  0.45693640  0.94820796  0.68788780     0.84300
C2366       C  0.03479847  0.55186858  0.68330428     0.90600
O2367       O  0.00119041  0.68063659  0.68135580    -0.73200
O2368       O  0.92528622  0.75868051  0.68716517    -0.74100
O2369       O  0.95971060  0.72407261  0.65464575    -0.62800
O2370       O  0.96606113  0.71382270  0.71415040    -0.71200
O2371       O  0.52070929  0.76690817  0.71632942    -0.70700
O2372       O  0.52037944  0.76830673  0.65559440    -0.62000
O2373       O  0.48661519  0.81031569  0.68611321    -0.74500
O2374       O  0.55546799  0.72665814  0.68583292    -0.73300
Cu2375     Cu  0.96154591  0.71772914  0.68433911     1.04600
Cu2376     Cu  0.52240777  0.76953648  0.68596199     1.04300
C2377       C  0.03539716  0.68808164  0.68168966     0.93000
C2378       C  0.93742451  0.79139457  0.68690295     0.92200
C2379       C  0.98296880  0.74362336  0.64514329     0.84300
C2380       C  0.49605245  0.74850890  0.72564257     0.90600
O2381       O  0.75476234  0.94252959  0.68794678    -0.73200
O2382       O  0.68212070  0.52663670  0.68943159    -0.74100
O2383       O  0.71239079  0.98345119  0.65956355    -0.62800
O2384       O  0.72514815  0.98429818  0.71950807    -0.71200
O2385       O  0.77135040  0.02323392  0.71624005    -0.70700
O2386       O  0.76111823  0.01942221  0.65661724    -0.62000
O2387       O  0.73050712  0.56328784  0.68646761    -0.74500
O2388       O  0.80234343  0.98031555  0.68559119    -0.73300
Cu2389     Cu  0.71730688  0.98214703  0.68969849     1.04600
Cu2390     Cu  0.76788743  0.02268238  0.68630137     1.04300
C2391       C  0.78922488  0.94809898  0.68667280     0.93000
C2392       C  0.69591979  0.55841696  0.68740416     0.92200
C2393       C  0.73490511  0.00156915  0.64868819     0.84300
C2394       C  0.74986848  0.00435965  0.72735448     0.90600
O2395       O  0.68967630  0.72986261  0.68548345    -0.73200
O2396       O  0.76006788  0.81216053  0.68796999    -0.74100
O2397       O  0.72777933  0.77208653  0.65670922    -0.62800
O2398       O  0.72257166  0.76841637  0.71684294    -0.71200
O2399       O  0.77112051  0.73188270  0.71713975    -0.70700
O2400       O  0.77668176  0.73599483  0.65723445    -0.62000
O2401       O  0.80881930  0.77569717  0.68848126    -0.74500
O2402       O  0.73773947  0.69247663  0.68564821    -0.73300
Cu2403     Cu  0.72350532  0.77214530  0.68674878     1.04600
Cu2404     Cu  0.77519885  0.73252219  0.68717957     1.04300
C2405       C  0.70312922  0.69783653  0.68517917     0.93000
C2406       C  0.79467851  0.80755473  0.68830648     0.92200
C2407       C  0.75301638  0.75463237  0.64755488     0.84300
C2408       C  0.74596625  0.74910571  0.72642780     0.90600
O2409       O  0.98657495  0.56385361  0.81934525    -0.73200
O2410       O  0.98473385  0.57593340  0.87946883    -0.74100
O2411       O  0.52430564  0.59871718  0.84865458    -0.62800
O2412       O  0.94298031  0.53517919  0.85068681    -0.71200
O2413       O  0.98768178  0.96669655  0.85407908    -0.70700
O2414       O  0.57848760  0.05172065  0.84892259    -0.62000
O2415       O  0.03217293  0.00731751  0.88034066    -0.74500
O2416       O  0.02634265  0.99436936  0.82099829    -0.73300
Cu2417     Cu  0.98424623  0.57156270  0.84924512     1.04600
Cu2418     Cu  0.03093537  0.99920059  0.85073566     1.04300
C2419       C  0.00585209  0.01578084  0.81078933     0.93000
C2420       C  0.01603765  0.03403552  0.88887783     0.92200
C2421       C  0.57388866  0.08625010  0.84740795     0.84300
C2422       C  0.95592311  0.98086374  0.85438153     0.90600
O2423       O  0.47095418  0.75234823  0.82222230    -0.73200
O2424       O  0.47057232  0.73987424  0.88213649    -0.74100
O2425       O  0.51021282  0.78390318  0.85432936    -0.62800
O2426       O  0.92762907  0.70684798  0.84981087    -0.71200
O2427       O  0.96211424  0.65688624  0.84739334    -0.70700
O2428       O  0.54993951  0.73780681  0.85347215    -0.62000
O2429       O  0.50773691  0.69209134  0.87941222    -0.74500
O2430       O  0.51359767  0.70932138  0.81991454    -0.73300
Cu2431     Cu  0.46935187  0.74784977  0.85227937     1.04600
Cu2432     Cu  0.51222058  0.69920861  0.84960642     1.04300
C2433       C  0.49280948  0.73316773  0.81166301     0.93000
C2434       C  0.48822173  0.71332974  0.89011850     0.92200
C2435       C  0.54291795  0.77198120  0.85465195     0.84300
C2436       C  0.93092160  0.67213067  0.84869799     0.90600
O2437       O  0.74116457  0.99446249  0.82476559    -0.73200
O2438       O  0.74682302  0.00345811  0.88453721    -0.74100
O2439       O  0.70454861  0.03704944  0.85386688    -0.62800
O2440       O  0.78389412  0.96138285  0.85549862    -0.71200
O2441       O  0.81113628  0.51143072  0.85280977    -0.70700
O2442       O  0.72615959  0.57735991  0.85231406    -0.62000
O2443       O  0.76909644  0.54544114  0.88259843    -0.74500
O2444       O  0.76710410  0.54142901  0.82264404    -0.73300
Cu2445     Cu  0.74254304  0.99751539  0.85478458     1.04600
Cu2446     Cu  0.76970509  0.54548374  0.85256846     1.04300
C2447       C  0.76088921  0.01494475  0.81350127     0.93000
C2448       C  0.76632440  0.02890040  0.89197591     0.92200
C2449       C  0.71184835  0.07095463  0.85103118     0.84300
C2450       C  0.81649614  0.97364206  0.85450477     0.90600
O2451       O  0.71765789  0.71204267  0.82061237    -0.73200
O2452       O  0.71756850  0.70169042  0.88076085    -0.74100
O2453       O  0.67651072  0.74195952  0.85235198    -0.62800
O2454       O  0.75852055  0.67094493  0.84915497    -0.71200
O2455       O  0.79638458  0.71799930  0.85315272    -0.70700
O2456       O  0.71403794  0.78990976  0.85264545    -0.62000
O2457       O  0.75236837  0.75141679  0.88249884    -0.74500
O2458       O  0.75859158  0.75671187  0.82287900    -0.73300
Cu2459     Cu  0.71610450  0.70504938  0.85060515     1.04600
Cu2460     Cu  0.75681565  0.75558730  0.85282591     1.04300
C2461       C  0.73872514  0.73568150  0.81230090     0.93000
C2462       C  0.73447582  0.72566395  0.89103740     0.92200
C2463       C  0.68188586  0.77644713  0.85303978     0.84300
C2464       C  0.79067027  0.68371070  0.85116424     0.90600
O2465       O  0.95384398  0.02521143  0.37896687    -0.73200
O2466       O  0.97070309  0.03142606  0.31977580    -0.74100
O2467       O  0.92310453  0.99069542  0.34523500    -0.62800
O2468       O  0.97318577  0.55568721  0.35338549    -0.71200
O2469       O  0.53295769  0.52556312  0.35238825    -0.70700
O2470       O  0.47580227  0.95198531  0.35008494    -0.62000
O2471       O  0.51887980  0.99089347  0.32189864    -0.74500
O2472       O  0.50790531  0.99087854  0.38190646    -0.73300
Cu2473     Cu  0.96106702  0.02969725  0.34927695     1.04600
Cu2474     Cu  0.51507740  0.98892878  0.35200670     1.04300
C2475       C  0.97401807  0.00430607  0.38960323     0.93000
C2476       C  0.99428465  0.01094277  0.31126847     0.92200
C2477       C  0.93351468  0.95740804  0.34571546     0.84300
C2478       C  0.00814109  0.55475612  0.35390705     0.90600
O2479       O  0.53835152  0.73001312  0.34868328    -0.73200
O2480       O  0.47592390  0.81941145  0.34597465    -0.74100
O2481       O  0.51125914  0.77860058  0.37736596    -0.62800
O2482       O  0.50408309  0.76889535  0.31775884    -0.71200
O2483       O  0.94533978  0.73763084  0.32002497    -0.70700
O2484       O  0.94918860  0.74589114  0.37977035    -0.62000
O2485       O  0.91608470  0.78690209  0.34826249    -0.74500
O2486       O  0.97751429  0.69752153  0.35171176    -0.73300
Cu2487     Cu  0.50902183  0.77575456  0.34732054     1.04600
Cu2488     Cu  0.94519775  0.74090742  0.35001156     1.04300
C2489       C  0.01241678  0.69886348  0.35138458     0.93000
C2490       C  0.93279703  0.81719362  0.34596850     0.92200
C2491       C  0.97683554  0.76110058  0.38788824     0.84300
C2492       C  0.97148606  0.75091078  0.30953087     0.90600
O2493       O  0.74335053  0.94762656  0.35129753    -0.73200
O2494       O  0.81134487  0.53186178  0.35072866    -0.74100
O2495       O  0.78244444  0.98572832  0.38171134    -0.62800
O2496       O  0.77973799  0.98920074  0.32138067    -0.71200
O2497       O  0.73660414  0.03193115  0.32286005    -0.70700
O2498       O  0.73470636  0.02328424  0.38251022    -0.62000
O2499       O  0.76151189  0.56610555  0.35467723    -0.74500
O2500       O  0.69755100  0.98769817  0.35094727    -0.73300
Cu2501     Cu  0.78256979  0.98555513  0.35147340     1.04600
Cu2502     Cu  0.73391107  0.02866610  0.35271631     1.04300
C2503       C  0.70916197  0.95482764  0.35076475     0.93000
C2504       C  0.79611915  0.56292272  0.35261958     0.92200
C2505       C  0.75906913  0.00441695  0.39155476     0.84300
C2506       C  0.75850466  0.01216344  0.31272370     0.90600
O2507       O  0.80078978  0.73529219  0.34908247    -0.73200
O2508       O  0.73216643  0.81893939  0.34981899    -0.74100
O2509       O  0.77032319  0.77781079  0.37956212    -0.62800
O2510       O  0.76203913  0.77456836  0.31964637    -0.71200
O2511       O  0.71479276  0.73685974  0.32293163    -0.70700
O2512       O  0.72013482  0.74381889  0.38241574    -0.62000
O2513       O  0.68287146  0.78338120  0.35189634    -0.74500
O2514       O  0.75253450  0.69880278  0.35325944    -0.73300
Cu2515     Cu  0.76783707  0.77820016  0.34945535     1.04600
Cu2516     Cu  0.71586522  0.73938134  0.35273125     1.04300
C2517       C  0.78703249  0.70359848  0.35126343     0.93000
C2518       C  0.69750498  0.81498845  0.35054990     0.92200
C2519       C  0.74685744  0.76072991  0.39035893     0.84300
C2520       C  0.73757267  0.75414243  0.31185892     0.90600
O2521       O  0.50051316  0.00759457  0.48200228    -0.73200
O2522       O  0.50781610  0.00833971  0.42250940    -0.74100
O2523       O  0.51131637  0.56481083  0.44966985    -0.62800
O2524       O  0.50223043  0.95245070  0.45211263    -0.71200
O2525       O  0.93115499  0.94812211  0.44878124    -0.70700
O2526       O  0.94129834  0.55782120  0.45220987    -0.62000
O2527       O  0.93749853  0.00522924  0.41927147    -0.74500
O2528       O  0.92789360  0.00152650  0.47972114    -0.73300
Cu2529     Cu  0.50572832  0.00823608  0.45232328     1.04600
Cu2530     Cu  0.93011390  0.00331109  0.44937122     1.04300
C2531       C  0.95701493  0.00135931  0.49032121     0.93000
C2532       C  0.96944679  0.00371803  0.41141695     0.92200
C2533       C  0.97095366  0.57589720  0.45007997     0.84300
C2534       C  0.96078164  0.92982460  0.45037921     0.90600
O2535       O  0.53424978  0.75830089  0.47800982    -0.73200
O2536       O  0.52368498  0.76398536  0.41793007    -0.74100
O2537       O  0.52810604  0.81568066  0.44912452    -0.62800
O2538       O  0.53158094  0.70565692  0.44672645    -0.71200
O2539       O  0.96185303  0.69652936  0.44952082    -0.70700
O2540       O  0.95757048  0.80883274  0.45110756    -0.62000
O2541       O  0.95314189  0.75471108  0.42067755    -0.74500
O2542       O  0.96422502  0.75087806  0.48013030    -0.73300
Cu2543     Cu  0.53142250  0.76094351  0.44783036     1.04600
Cu2544     Cu  0.95705939  0.75261318  0.45047463     1.04300
C2545       C  0.99592816  0.75076648  0.48810561     0.93000
C2546       C  0.98131932  0.75873961  0.40961987     0.92200
C2547       C  0.98764774  0.82695416  0.45021744     0.84300
C2548       C  0.99299001  0.68076038  0.44728454     0.90600
O2549       O  0.78982263  0.99901195  0.42290258    -0.73200
O2550       O  0.78803291  0.00101890  0.48337744    -0.74100
O2551       O  0.78099557  0.94612554  0.45359727    -0.62800
O2552       O  0.79860585  0.55776221  0.45164981    -0.71200
O2553       O  0.73838410  0.56429319  0.45334329    -0.70700
O2554       O  0.72108306  0.95535646  0.45258562    -0.62000
O2555       O  0.72799787  0.00982659  0.48279423    -0.74500
O2556       O  0.73036178  0.01135581  0.42296838    -0.73300
Cu2557     Cu  0.79155641  0.99996216  0.45314893     1.04600
Cu2558     Cu  0.72764267  0.01094105  0.45284286     1.04300
C2559       C  0.75990647  0.00472094  0.41348733     0.93000
C2560       C  0.75758158  0.00524981  0.49257808     0.92200
C2561       C  0.74848051  0.93343716  0.45298502     0.84300
C2562       C  0.77042078  0.57844259  0.45204100     0.90600
O2563       O  0.79798788  0.75139208  0.47870249    -0.73200
O2564       O  0.78348134  0.75669621  0.41936859    -0.74100
O2565       O  0.79499078  0.80885376  0.44971833    -0.62800
O2566       O  0.78510699  0.69800672  0.44851811    -0.71200
O2567       O  0.72539472  0.70403946  0.45336328    -0.70700
O2568       O  0.73487823  0.81420031  0.45324454    -0.62000
O2569       O  0.72326504  0.76000234  0.42347504    -0.74500
O2570       O  0.73815514  0.75786814  0.48303359    -0.73300
Cu2571     Cu  0.79248097  0.75349541  0.44889056     1.04600
Cu2572     Cu  0.72836238  0.75918470  0.45343259     1.04300
C2573       C  0.77036572  0.75418411  0.49026110     0.93000
C2574       C  0.75134396  0.75934112  0.41207874     0.92200
C2575       C  0.76648253  0.82891367  0.45154693     0.84300
C2576       C  0.75341194  0.68359522  0.45105567     0.90600
O2577       O  0.96944747  0.00203921  0.08443422    -0.73200
O2578       O  0.57902624  0.00396341  0.08346995    -0.74100
O2579       O  0.02515807  0.99803292  0.11419322    -0.62800
O2580       O  0.02328271  0.01105964  0.05371394    -0.71200
O2581       O  0.00744841  0.58584651  0.06014082    -0.70700
O2582       O  0.00650528  0.56825743  0.11912358    -0.62000
O2583       O  0.56221757  0.57006378  0.09018350    -0.74500
O2584       O  0.95157112  0.58207072  0.09006814    -0.73300
Cu2585     Cu  0.02413793  0.00142454  0.08378612     1.04600
Cu2586     Cu  0.00731714  0.57843343  0.08977648     1.04300
C2587       C  0.95087696  0.03140398  0.08575185     0.93000
C2588       C  0.59697956  0.03340050  0.08597726     0.92200
C2589       C  0.02341528  0.02702074  0.12480087     0.84300
C2590       C  0.02389852  0.04364153  0.04634246     0.90600
O2591       O  0.97680614  0.73845069  0.05498775    -0.73200
O2592       O  0.97770448  0.74072544  0.11434275    -0.74100
O2593       O  0.53205442  0.74482811  0.08592580    -0.62800
O2594       O  0.92201881  0.73249280  0.08526033    -0.71200
O2595       O  0.92988361  0.67238036  0.08682471    -0.70700
O2596       O  0.53969686  0.68463616  0.08568679    -0.62000
O2597       O  0.98709417  0.68073852  0.11589176    -0.74500
O2598       O  0.98305693  0.67804532  0.05516110    -0.73300
Cu2599     Cu  0.97704856  0.74124074  0.08466022     1.04600
Cu2600     Cu  0.98511187  0.67685463  0.08562034     1.04300
C2601       C  0.97972833  0.70840993  0.04559989     0.93000
C2602       C  0.98284180  0.71157516  0.12453460     0.92200
C2603       C  0.55323744  0.71690671  0.08585197     0.84300
C2604       C  0.90858414  0.70013902  0.08640095     0.90600
O2605       O  0.75730768  0.57564153  0.11802375    -0.73200
O2606       O  0.75747143  0.56599795  0.05714196    -0.74100
O2607       O  0.70300456  0.57916347  0.08726670    -0.62800
O2608       O  0.81231256  0.56594558  0.08785178    -0.71200
O2609       O  0.82990248  0.02280650  0.08798082    -0.70700
O2610       O  0.71711426  0.02402252  0.08837792    -0.62000
O2611       O  0.77286199  0.01919515  0.05895241    -0.74500
O2612       O  0.77312655  0.02298336  0.11762370    -0.73300
Cu2613     Cu  0.75781883  0.57389526  0.08744088     1.04600
Cu2614     Cu  0.77334271  0.02017386  0.08829097     1.04300
C2615       C  0.77413302  0.05299941  0.12702839     0.93000
C2616       C  0.77191719  0.04797522  0.04822065     0.92200
C2617       C  0.70091279  0.05526885  0.08820624     0.84300
C2618       C  0.84681824  0.05366536  0.08686426     0.90600
O2619       O  0.78934307  0.68357083  0.08904346    -0.73200
O2620       O  0.67875777  0.67148718  0.08847609    -0.74100
O2621       O  0.73514187  0.67217215  0.05887438    -0.62800
O2622       O  0.73194134  0.68239287  0.11873626    -0.71200
O2623       O  0.72732645  0.74271508  0.11525815    -0.70700
O2624       O  0.72758567  0.73217455  0.05569208    -0.62000
O2625       O  0.67212069  0.73164833  0.08576834    -0.74500
O2626       O  0.78227114  0.74346713  0.08514709    -0.73300
Cu2627     Cu  0.73406113  0.67528886  0.08892096     1.04600
Cu2628     Cu  0.72708618  0.73954153  0.08535715     1.04300
C2629       C  0.80320550  0.71561526  0.08696077     0.93000
C2630       C  0.65805840  0.69963560  0.08711290     0.92200
C2631       C  0.73166310  0.70064887  0.04784572     0.84300
C2632       C  0.72919335  0.71420314  0.12636703     0.90600
O2633       O  0.97536494  0.54336454  0.21780573    -0.73200
O2634       O  0.98539558  0.55539447  0.15839785    -0.74100
O2635       O  0.93889612  0.51588167  0.18430580    -0.62800
O2636       O  0.51845111  0.57935905  0.19239009    -0.71200
O2637       O  0.57845448  0.03559169  0.18699460    -0.70700
O2638       O  0.99434393  0.96544886  0.18572413    -0.62000
O2639       O  0.03851727  0.99995587  0.15625929    -0.74500
O2640       O  0.03436306  0.00005198  0.21639054    -0.73300
Cu2641     Cu  0.97919284  0.55120110  0.18809825     1.04600
Cu2642     Cu  0.03797940  0.99866439  0.18639839     1.04300
C2643       C  0.01390736  0.02291460  0.22549237     0.93000
C2644       C  0.02182480  0.02521623  0.14665061     0.92200
C2645       C  0.96274052  0.98000048  0.18452226     0.84300
C2646       C  0.57258268  0.07010017  0.18767182     0.90600
O2647       O  0.95808617  0.74953329  0.21347739    -0.73200
O2648       O  0.96516660  0.74073343  0.15425981    -0.74100
O2649       O  0.92095072  0.70959931  0.18426243    -0.62800
O2650       O  0.50166261  0.77691601  0.18469776    -0.71200
O2651       O  0.53943457  0.72921433  0.18614110    -0.70700
O2652       O  0.95810999  0.66211944  0.18915461    -0.62000
O2653       O  0.00016058  0.69130020  0.15724029    -0.74500
O2654       O  0.99804765  0.70419919  0.21709424    -0.73300
Cu2655     Cu  0.96046426  0.74676237  0.18373739     1.04600
Cu2656     Cu  0.00076496  0.69604151  0.18735974     1.04300
C2657       C  0.97720300  0.72858645  0.22466576     0.93000
C2658       C  0.98281694  0.71439128  0.14636887     0.92200
C2659       C  0.92615498  0.67536604  0.18703081     0.84300
C2660       C  0.53386780  0.76371181  0.18531589     0.90600
O2661       O  0.74668991  0.01018667  0.21585728    -0.73200
O2662       O  0.75354288  0.02417609  0.15654955    -0.74100
O2663       O  0.79151815  0.98271496  0.18530897    -0.62800
O2664       O  0.70755575  0.05074541  0.18677805    -0.71200
O2665       O  0.72211880  0.59606391  0.19254688    -0.70700
O2666       O  0.80762375  0.52796332  0.18876378    -0.62000
O2667       O  0.76611417  0.56928070  0.16062746    -0.74500
O2668       O  0.76420467  0.55564128  0.22049634    -0.73300
Cu2669     Cu  0.74844524  0.01544780  0.18597973     1.04600
Cu2670     Cu  0.76643772  0.56398804  0.19073573     1.04300
C2671       C  0.76384917  0.03221251  0.22722528     0.93000
C2672       C  0.77197656  0.05056173  0.14888934     0.92200
C2673       C  0.82331722  0.99632401  0.18701208     0.84300
C2674       C  0.71153418  0.08516892  0.18884639     0.90600
O2675       O  0.70626856  0.78443249  0.18483292    -0.73200
O2676       O  0.79098968  0.71526659  0.18599054    -0.74100
O2677       O  0.74612138  0.74524028  0.15571358    -0.62800
O2678       O  0.75169291  0.75515573  0.21501787    -0.71200
O2679       O  0.71412536  0.70794189  0.21892756    -0.70700
O2680       O  0.71213965  0.69515114  0.15920032    -0.62000
O2681       O  0.75463760  0.66714059  0.19079328    -0.74500
O2682       O  0.67057735  0.73530302  0.18764078    -0.73300
Cu2683     Cu  0.75018465  0.75164331  0.18525907     1.04600
Cu2684     Cu  0.71142583  0.69977724  0.18925758     1.04300
C2685       C  0.67465445  0.76991157  0.18615011     0.93000
C2686       C  0.78632043  0.68085963  0.18857938     0.92200
C2687       C  0.72899881  0.71833779  0.14810436     0.84300
C2688       C  0.73343104  0.73363496  0.22638409     0.90600
O2689       O  0.00275368  0.57828932  0.98286917    -0.73200
O2690       O  0.00046174  0.58441690  0.92161010    -0.74100
O2691       O  0.94746155  0.58306379  0.95276950    -0.62800
O2692       O  0.55698064  0.58246499  0.95148652    -0.71200
O2693       O  0.57073178  0.00664262  0.94980774    -0.70700
O2694       O  0.95888691  0.01135761  0.94986046    -0.62000
O2695       O  0.01520208  0.00559863  0.92021774    -0.74500
O2696       O  0.01469564  0.00071054  0.97904323    -0.73300
Cu2697     Cu  0.00187887  0.58456489  0.95227982     1.04600
Cu2698     Cu  0.01462954  0.00225426  0.94962795     1.04300
C2699       C  0.01907420  0.02908972  0.98956913     0.93000
C2700       C  0.01702846  0.03581476  0.91073911     0.92200
C2701       C  0.94579269  0.04396403  0.95084415     0.84300
C2702       C  0.59087814  0.03536553  0.95070282     0.90600
O2703       O  0.48291629  0.73474952  0.92332862    -0.73200
O2704       O  0.98249609  0.71788105  0.98162297    -0.74100
O2705       O  0.53855839  0.72817284  0.95331248    -0.62800
O2706       O  0.92697752  0.72486772  0.95174312    -0.71200
O2707       O  0.92724095  0.66484482  0.94737375    -0.70700
O2708       O  0.53955292  0.66784089  0.95020378    -0.62000
O2709       O  0.98075883  0.65760757  0.97828901    -0.74500
O2710       O  0.48740752  0.67475210  0.91902755    -0.73300
Cu2711     Cu  0.98296506  0.72665429  0.95193029     1.04600
Cu2712     Cu  0.98282821  0.66226617  0.94819352     1.04300
C2713       C  0.48607293  0.70727891  0.91182139     0.93000
C2714       C  0.98121440  0.68582116  0.98941861     0.92200
C2715       C  0.55659837  0.69817909  0.95191710     0.84300
C2716       C  0.90949677  0.69474724  0.94954172     0.90600
O2717       O  0.75421810  0.55560143  0.92209824    -0.73200
O2718       O  0.75227034  0.57201273  0.98047692    -0.74100
O2719       O  0.80915750  0.56163777  0.95169330    -0.62800
O2720       O  0.69641504  0.56160303  0.95094715    -0.71200
O2721       O  0.70879264  0.02411873  0.95532201    -0.70700
O2722       O  0.81748676  0.00807443  0.95540880    -0.62000
O2723       O  0.76480885  0.02781088  0.98503790    -0.74500
O2724       O  0.76156981  0.00747492  0.92570305    -0.73300
Cu2725     Cu  0.75295847  0.56482400  0.95114187     1.04600
Cu2726     Cu  0.76288847  0.01486392  0.95564059     1.04300
C2727       C  0.76698651  0.03429733  0.91363225     0.93000
C2728       C  0.76926607  0.06072506  0.99111205     0.92200
C2729       C  0.83987804  0.03445028  0.95272155     0.84300
C2730       C  0.69539617  0.05570503  0.95167562     0.90600
O2731       O  0.73480093  0.75455751  0.92237335    -0.73200
O2732       O  0.73263091  0.75465838  0.98196090    -0.74100
O2733       O  0.78903617  0.75330682  0.95250090    -0.62800
O2734       O  0.67803473  0.75557483  0.95180508    -0.71200
O2735       O  0.67651083  0.69495169  0.95282403    -0.70700
O2736       O  0.78834235  0.69268327  0.95189204    -0.62000
O2737       O  0.73277128  0.69392590  0.98267616    -0.74500
O2738       O  0.73130934  0.69388590  0.92225818    -0.73300
Cu2739     Cu  0.73364458  0.75652492  0.95215570     1.04600
Cu2740     Cu  0.73221428  0.69166299  0.95243891     1.04300
C2741       C  0.73328295  0.72446437  0.91289508     0.93000
C2742       C  0.73243661  0.72459357  0.99177351     0.92200
C2743       C  0.80628447  0.72285473  0.95204181     0.84300
C2744       C  0.65970924  0.72572788  0.95233023     0.90600
O2745       O  0.52913765  0.00551459  0.55523509    -0.73200
O2746       O  0.53212457  0.00070086  0.61534990    -0.74100
O2747       O  0.53385984  0.94799943  0.58432530    -0.62800
O2748       O  0.50574961  0.56009984  0.58719488    -0.71200
O2749       O  0.93573370  0.54728627  0.58902199    -0.70700
O2750       O  0.95765985  0.93815787  0.58479160    -0.62000
O2751       O  0.95352956  0.99187212  0.61562579    -0.74500
O2752       O  0.95337423  0.99577444  0.55550189    -0.73300
Cu2753     Cu  0.53290248  0.00342063  0.58527426     1.04600
Cu2754     Cu  0.95163804  0.99359449  0.58560070     1.04300
C2755       C  0.98364823  0.99943537  0.54611481     0.93000
C2756       C  0.98373192  0.99191490  0.62516976     0.92200
C2757       C  0.98935328  0.92320958  0.58419549     0.84300
C2758       C  0.96366344  0.56838658  0.58748561     0.90600
O2759       O  0.94181761  0.79814083  0.58505275    -0.73200
O2760       O  0.95085995  0.68769534  0.58462524    -0.74100
O2761       O  0.94986002  0.74179868  0.61472934    -0.62800
O2762       O  0.94375272  0.74374854  0.55471361    -0.71200
O2763       O  0.51514391  0.75347032  0.55378295    -0.70700
O2764       O  0.52242824  0.75435091  0.61401726    -0.62000
O2765       O  0.52187226  0.69804598  0.58425007    -0.74500
O2766       O  0.51505124  0.80903879  0.58365540    -0.73300
Cu2767     Cu  0.94449488  0.74272638  0.58482078     1.04600
Cu2768     Cu  0.52074148  0.75377438  0.58382303     1.04300
C2769       C  0.97017804  0.81857836  0.58391736     0.93000
C2770       C  0.98260972  0.67305276  0.58418499     0.92200
C2771       C  0.98090367  0.74532198  0.62325908     0.84300
C2772       C  0.97302721  0.74638201  0.54431709     0.90600
O2773       O  0.76066528  0.00405721  0.61640502    -0.73200
O2774       O  0.75687775  0.00580990  0.55686982    -0.74100
O2775       O  0.76376073  0.56081143  0.58739065    -0.62800
O2776       O  0.75847742  0.94858029  0.58629652    -0.71200
O2777       O  0.69784117  0.94860684  0.58694202    -0.70700
O2778       O  0.70321068  0.55869936  0.58893040    -0.62000
O2779       O  0.69622781  0.00586269  0.55758148    -0.74500
O2780       O  0.70012657  0.00073791  0.61833419    -0.73300
Cu2781     Cu  0.76021178  0.00486233  0.58662312     1.04600
Cu2782     Cu  0.69544060  0.00347572  0.58801195     1.04300
C2783       C  0.73150192  0.00190406  0.62680954     0.93000
C2784       C  0.72632516  0.00618669  0.54771594     0.92200
C2785       C  0.73274415  0.57728244  0.58821498     0.84300
C2786       C  0.72799292  0.93106209  0.58642336     0.90600
O2787       O  0.78430815  0.75416951  0.61613993    -0.73200
O2788       O  0.78250417  0.75478261  0.55543392    -0.74100
O2789       O  0.78403378  0.80982247  0.58561503    -0.62800
O2790       O  0.78532615  0.69982534  0.58598919    -0.71200
O2791       O  0.72475759  0.69806881  0.58749502    -0.70700
O2792       O  0.72339139  0.81048907  0.58581849    -0.62000
O2793       O  0.72186263  0.75334018  0.55699153    -0.74500
O2794       O  0.72358357  0.75582497  0.61632261    -0.73300
Cu2795     Cu  0.78614937  0.75471911  0.58577139     1.04600
Cu2796     Cu  0.72129419  0.75437242  0.58666347     1.04300
C2797       C  0.75387159  0.75505741  0.62566239     0.93000
C2798       C  0.75127805  0.75395846  0.54677306     0.92200
C2799       C  0.75403158  0.82769645  0.58562063     0.84300
C2800       C  0.75571749  0.68141992  0.58691892     0.90600
C2801       C  0.75596405  0.86850461  0.58551367    -0.16600
C2802       C  0.72628445  0.89026891  0.58607376    -0.31800
H2803       H  0.78294443  0.88097844  0.58518722     0.12400
H2804       H  0.69932461  0.87774568  0.58643972     0.13000
C2805       C  0.72969948  0.61802057  0.58826097    -0.16600
C2806       C  0.75866429  0.64067993  0.58724037    -0.31800
H2807       H  0.70240079  0.62969361  0.58899829     0.12400
H2808       H  0.78595453  0.62898025  0.58650767     0.13000
C2809       C  0.99371839  0.88270844  0.58358091    -0.16600
C2810       C  0.96538885  0.85906887  0.58417186    -0.31800
H2811       H  0.02142476  0.87204420  0.58282216     0.12400
H2812       H  0.45214811  0.87587115  0.58621563     0.13000
C2813       C  0.95862704  0.60889876  0.58705349    -0.16600
C2814       C  0.98690945  0.63250293  0.58478180    -0.31800
H2815       H  0.93098455  0.61948320  0.58844570     0.12400
H2816       H  0.52434071  0.62677565  0.58441964     0.13000
C2817       C  0.86851625  0.69359723  0.94965064    -0.16600
C2818       C  0.84724396  0.72359548  0.95172328    -0.31800
H2819       H  0.85552079  0.66704450  0.94806886     0.12400
H2820       H  0.86032624  0.75014568  0.95308684     0.13000
C2821       C  0.59743390  0.69736966  0.95219798    -0.16600
C2822       C  0.61884090  0.72747562  0.95237623    -0.31800
H2823       H  0.61034714  0.67059595  0.95193529     0.12400
H2824       H  0.60610332  0.75432881  0.95238466     0.13000
C2825       C  0.90579368  0.05172170  0.95100727    -0.16600
C2826       C  0.87976004  0.02589838  0.95253365    -0.31800
H2827       H  0.87711681  0.58366403  0.95114146     0.12400
H2828       H  0.88784553  0.99736339  0.95380561     0.13000
C2829       C  0.63147349  0.03159492  0.95121266    -0.16600
C2830       C  0.65486585  0.06042365  0.95083712    -0.31800
H2831       H  0.62759311  0.58342035  0.94932285     0.12400
H2832       H  0.64411710  0.08806687  0.94965188     0.13000
C2833       C  0.87417337  0.64816366  0.17039929    -0.13600
C2834       C  0.89392689  0.65230821  0.18811774     0.08600
C2835       C  0.87558395  0.65119726  0.20649031    -0.13600
C2836       C  0.83759220  0.65415115  0.20689997    -0.13600
C2837       C  0.81843939  0.65759567  0.18892871     0.08600
C2838       C  0.83621598  0.65107794  0.17079309    -0.13600
H2839       H  0.88809878  0.64928331  0.15610966     0.12600
H2840       H  0.89060303  0.65473999  0.22026857     0.12600
H2841       H  0.82403053  0.65941710  0.22098303     0.12600
H2842       H  0.82156437  0.65388382  0.15681761     0.12600
C2843       C  0.58395346  0.79152167  0.20369648    -0.13600
C2844       C  0.56576346  0.78744526  0.18548260     0.08600
C2845       C  0.58487357  0.79257490  0.16754776    -0.13600
C2846       C  0.62294341  0.79502124  0.16780710    -0.13600
C2847       C  0.64156625  0.79193065  0.18598498     0.08600
C2848       C  0.62198843  0.79386109  0.20394682    -0.13600
H2849       H  0.56949307  0.78709227  0.21765179     0.12600
H2850       H  0.57112718  0.78896604  0.15338938     0.12600
H2851       H  0.63776777  0.79301252  0.15383660     0.12600
H2852       H  0.63606479  0.79094538  0.21809269     0.12600
C2853       C  0.91120895  0.95657268  0.20301135    -0.13600
C2854       C  0.92951732  0.95831688  0.18462432     0.08600
C2855       C  0.90916895  0.95912524  0.16691819    -0.13600
C2856       C  0.87184644  0.96673048  0.16770205    -0.13600
C2857       C  0.85514407  0.97263877  0.18619350     0.08600
C2858       C  0.87398604  0.96463119  0.20384116    -0.13600
H2859       H  0.92662617  0.95616636  0.21681281     0.12600
H2860       H  0.92299051  0.96074015  0.15261212     0.12600
H2861       H  0.85738358  0.97290772  0.15397847     0.12600
H2862       H  0.86118375  0.96913549  0.21821243     0.12600
C2863       C  0.59974743  0.60197036  0.17597054    -0.13600
C2864       C  0.60382685  0.09456958  0.18838807     0.08600
C2865       C  0.62130050  0.09974989  0.20670246    -0.13600
C2866       C  0.65878491  0.10664175  0.20704523    -0.13600
C2867       C  0.67847629  0.10707812  0.18908981     0.08600
C2868       C  0.63741004  0.60801128  0.17605340    -0.13600
H2869       H  0.58556086  0.60080612  0.16180449     0.12600
H2870       H  0.60725492  0.09339724  0.22056430     0.12600
H2871       H  0.67307355  0.10457416  0.22116578     0.12600
H2872       H  0.65160522  0.61065837  0.16189635     0.12600
C2873       C  0.73246924  0.69693365  0.02586481    -0.16600
C2874       C  0.73160017  0.72646090  0.01376831    -0.31800
H2875       H  0.73416684  0.66967167  0.01957865     0.12400
H2876       H  0.73033356  0.75361022  0.02023348     0.13000
C2877       C  0.76975930  0.04236579  0.02646497    -0.16600
C2878       C  0.77076487  0.06907716  0.01269870    -0.31800
H2879       H  0.75385054  0.49852465  0.02343629     0.12400
H2880       H  0.77356966  0.09733769  0.01727529     0.13000
C2881       C  0.86825274  0.69400103  0.08725817    -0.16600
C2882       C  0.84358783  0.72143526  0.08648671    -0.31800
H2883       H  0.85864759  0.66591629  0.08843241     0.12400
H2884       H  0.85326855  0.74947331  0.08517413     0.13000
C2885       C  0.59360560  0.72244153  0.08597376    -0.16600
C2886       C  0.61766570  0.69444477  0.08704100    -0.31800
H2887       H  0.60373252  0.75037615  0.08529494     0.12400
H2888       H  0.60747715  0.66653666  0.08790685     0.13000
C2889       C  0.97964189  0.71040842  0.02354641    -0.16600
C2890       C  0.98040713  0.68125931  0.01145435    -0.31800
H2891       H  0.97902872  0.73770805  0.01698572     0.12400
H2892       H  0.48069048  0.65449650  0.01839768     0.13000
C2893       C  0.91023740  0.02792592  0.08616376    -0.16600
C2894       C  0.88747867  0.05670776  0.08656007    -0.31800
H2895       H  0.89874034  0.00050483  0.08601935     0.12400
H2896       H  0.87758767  0.50179835  0.08972460     0.13000
C2897       C  0.63759134  0.03036387  0.08635294    -0.16600
C2898       C  0.66032185  0.05889110  0.08838030    -0.31800
H2899       H  0.64920429  0.00317271  0.08470620     0.12400
H2900       H  0.63214734  0.58705788  0.08895398     0.13000
C2901       C  0.02380663  0.05050509  0.02454237    -0.16600
C2902       C  0.01976363  0.02349590  0.01142221    -0.31800
H2903       H  0.02662494  0.07852169  0.01921014     0.12400
H2904       H  0.49932915  0.51383416  0.01888749     0.13000
C2905       C  0.77606022  0.75332264  0.51212607    -0.16600
C2906       C  0.74767282  0.75403755  0.52484338    -0.31800
H2907       H  0.80385363  0.75211807  0.51780729     0.12400
H2908       H  0.71999915  0.75477701  0.51895116     0.13000
C2909       C  0.74260267  0.89312998  0.45270790    -0.16600
C2910       C  0.77085655  0.86932095  0.45175521    -0.31800
H2911       H  0.71469920  0.88292432  0.45315557     0.12400
H2912       H  0.79865130  0.87980030  0.45102326     0.13000
C2913       C  0.77585608  0.61887457  0.45093839    -0.16600
C2914       C  0.74811574  0.64313256  0.45157349    -0.31800
H2915       H  0.80375797  0.62892226  0.44972974     0.12400
H2916       H  0.72025414  0.63305040  0.45297150     0.13000
C2917       C  0.75701602  0.00480055  0.51468913    -0.16600
C2918       C  0.72590272  0.00691274  0.52556740    -0.31800
H2919       H  0.79161168  0.50559965  0.52249629     0.12400
H2920       H  0.69961343  0.00886518  0.51810606     0.13000
C2921       C  0.99955807  0.74935246  0.51011664    -0.16600
C2922       C  0.97020024  0.74711174  0.52228527    -0.31800
H2923       H  0.02689559  0.75034126  0.51641601     0.12400
H2924       H  0.45297425  0.75159561  0.51716538     0.13000
C2925       C  0.98862859  0.86765388  0.45075231    -0.16600
C2926       C  0.95872474  0.88909645  0.45015839    -0.31800
H2927       H  0.52580946  0.88610541  0.45116235     0.12400
H2928       H  0.93185201  0.87651149  0.44927782     0.13000
C2929       C  0.96816236  0.61680386  0.44935864    -0.16600
C2930       C  0.99669287  0.63988324  0.44703703    -0.31800
H2931       H  0.94098230  0.62839203  0.45108643     0.12400
H2932       H  0.53340805  0.63419633  0.44664468     0.13000
C2933       C  0.95445087  0.00024709  0.51243762    -0.16600
C2934       C  0.98459983  0.00111443  0.52402494    -0.31800
H2935       H  0.92750528  0.99857532  0.51926022     0.12400
H2936       H  0.44125151  0.49968413  0.52153328     0.13000
C2937       C  0.75771848  0.77128488  0.27722228    -0.13600
C2938       C  0.73596827  0.74962074  0.28995667     0.08600
C2939       C  0.71338887  0.72262253  0.28161253    -0.13600
C2940       C  0.71272935  0.71724711  0.26100125    -0.13600
C2941       C  0.73447238  0.73889510  0.24825514     0.08600
C2942       C  0.75689814  0.76605330  0.25658822    -0.13600
H2943       H  0.77541248  0.79227345  0.28319554     0.12600
H2944       H  0.69645880  0.70530698  0.29103486     0.12600
H2945       H  0.69512056  0.69615737  0.25505810     0.12600
H2946       H  0.77394934  0.78325157  0.24716863     0.12600
C2947       C  0.67586592  0.90537013  0.36773507    -0.13600
C2948       C  0.68395010  0.92398257  0.34989488     0.08600
C2949       C  0.68083613  0.90568990  0.33170333    -0.13600
C2950       C  0.67641137  0.86779034  0.33162571    -0.13600
C2951       C  0.67573276  0.84832049  0.34974631     0.08600
C2952       C  0.67150841  0.86741427  0.36764353    -0.13600
H2953       H  0.67861090  0.91912549  0.38191161     0.12600
H2954       H  0.68746494  0.91966617  0.31782509     0.12600
H2955       H  0.68010561  0.85339275  0.31769282     0.12600
H2956       H  0.67139258  0.85274518  0.38177060     0.12600
C2957       C  0.81912383  0.61503961  0.33383567    -0.13600
C2958       C  0.81739017  0.59631801  0.35213788     0.08600
C2959       C  0.81965026  0.61572601  0.37000764    -0.13600
C2960       C  0.81588213  0.65358997  0.36964979    -0.13600
C2961       C  0.81038856  0.67161685  0.35140801     0.08600
C2962       C  0.81538204  0.65295499  0.33346392    -0.13600
H2963       H  0.81692760  0.60021983  0.31994829     0.12600
H2964       H  0.81794298  0.60143166  0.38422283     0.12600
H2965       H  0.81179267  0.66788266  0.38358126     0.12600
H2966       H  0.81083168  0.66674189  0.31929841     0.12600
C2967       C  0.75615011  0.98683826  0.27820608    -0.13600
C2968       C  0.75986903  0.01690064  0.29089857     0.08600
C2969       C  0.74525298  0.54947807  0.28354373    -0.13600
C2970       C  0.74526967  0.55425137  0.26282954    -0.13600
C2971       C  0.76229505  0.02695974  0.24912831     0.08600
C2972       C  0.75676031  0.99191253  0.25746090    -0.13600
H2973       H  0.75216851  0.95960186  0.28434937     0.12600
H2974       H  0.74363299  0.57331338  0.29301401     0.12600
H2975       H  0.74336951  0.58165552  0.25662032     0.12600
H2976       H  0.75351598  0.96835780  0.24792372     0.12600
C2977       C  0.44506718  0.74807512  0.27758928    -0.13600
C2978       C  0.97245125  0.74480702  0.28789696     0.08600
C2979       C  0.00499618  0.73302446  0.27884012    -0.13600
C2980       C  0.00625440  0.72662921  0.25832361    -0.13600
C2981       C  0.97528576  0.73306073  0.24647713     0.08600
C2982       C  0.44511033  0.74141034  0.25707343    -0.13600
H2983       H  0.42013887  0.75727655  0.28473772     0.12600
H2984       H  0.02932497  0.72835322  0.28771146     0.12600
H2985       H  0.03166158  0.71757103  0.25163563     0.12600
H2986       H  0.42015754  0.74568764  0.24867977     0.12600
C2987       C  0.42068053  0.87136587  0.32796976    -0.13600
C2988       C  0.91238891  0.85125527  0.34392385     0.08600
C2989       C  0.90150550  0.86968743  0.36116974    -0.13600
C2990       C  0.89897472  0.90781082  0.36080343    -0.13600
C2991       C  0.90814393  0.92712916  0.34331163     0.08600
C2992       C  0.41852208  0.90945429  0.32799140    -0.08800
H2993       H  0.42737001  0.85756907  0.31418573     0.12600
H2994       H  0.90021239  0.85536578  0.37538312     0.12600
H2995       H  0.89669971  0.92210486  0.37485386     0.12600
H2996       H  0.42437323  0.92424515  0.31425858     0.12600
C2997       C  0.54341982  0.60805917  0.33470215    -0.13600
C2998       C  0.02765346  0.58910357  0.35518028     0.08600
C2999       C  0.02503910  0.60876600  0.37292798    -0.13600
C3000       C  0.02743546  0.64669369  0.37232912    -0.13600
C3001       C  0.03182269  0.66467375  0.35393987     0.08600
C3002       C  0.54584479  0.64609296  0.33432253    -0.13600
H3003       H  0.54166781  0.59343668  0.32073675     0.12600
H3004       H  0.01648881  0.59531777  0.38664973     0.12600
H3005       H  0.02029792  0.66198426  0.38557312     0.12600
H3006       H  0.54551329  0.66026882  0.32004609     0.12600
C3007       C  0.52942889  0.99320634  0.27954768    -0.13600
C3008       C  0.99994540  0.01422500  0.28935887     0.08600
C3009       C  0.95532970  0.52546856  0.27957144    -0.13600
C3010       C  0.96009163  0.53079813  0.25901420    -0.13600
C3011       C  0.01004554  0.02072180  0.24752945     0.08600
C3012       C  0.53333933  0.99556617  0.25877567    -0.13600
H3013       H  0.54688295  0.97459517  0.28782586     0.12600
H3014       H  0.93357209  0.54010343  0.28705798     0.12600
H3015       H  0.94163042  0.54907689  0.25117784     0.12600
H3016       H  0.55366099  0.97862164  0.25155560     0.12600
C3017       C  0.87949428  0.65002015  0.86805417    -0.13600
C3018       C  0.89749012  0.65079023  0.84956995     0.08600
C3019       C  0.87715713  0.64830552  0.83195328    -0.13600
C3020       C  0.83930222  0.65284874  0.83266094    -0.13600
C3021       C  0.82223320  0.65958263  0.85098727     0.08600
C3022       C  0.84176260  0.65498181  0.86877200    -0.13600
H3023       H  0.89498371  0.65227637  0.88176930     0.12600
H3024       H  0.89080974  0.64926325  0.81758654     0.12600
H3025       H  0.82444232  0.65669523  0.81882584     0.12600
H3026       H  0.82884210  0.66045552  0.88301088     0.12600
C3027       C  0.59344327  0.79738197  0.87369654    -0.13600
C3028       C  0.57387118  0.79684259  0.85577494     0.08600
C3029       C  0.59174092  0.80534971  0.83780415    -0.13600
C3030       C  0.62986268  0.80657606  0.83726481    -0.13600
C3031       C  0.64969556  0.79957236  0.85473445     0.08600
C3032       C  0.63152380  0.79890920  0.87317556    -0.13600
H3033       H  0.57997360  0.79046884  0.88765370     0.12600
H3034       H  0.57690517  0.80462588  0.82382567     0.12600
H3035       H  0.64354400  0.80668234  0.82290036     0.12600
H3036       H  0.64654244  0.79308781  0.88676729     0.12600
C3037       C  0.86143388  0.45992387  0.83383527    -0.13600
C3038       C  0.84815150  0.94967301  0.85547873     0.08600
C3039       C  0.86717033  0.94949742  0.87362771    -0.13600
C3040       C  0.90503734  0.95419756  0.87358353    -0.13600
C3041       C  0.92361068  0.95771572  0.85539495     0.08600
C3042       C  0.89797144  0.47082461  0.83369359    -0.13600
H3043       H  0.84631539  0.46105699  0.81994397     0.12600
H3044       H  0.85246095  0.95283146  0.88755377     0.12600
H3045       H  0.91881350  0.96022938  0.88747377     0.12600
H3046       H  0.91071163  0.47869577  0.81967993     0.12600
C3047       C  0.61058142  0.60660000  0.83447674    -0.13600
C3048       C  0.60677549  0.10859899  0.84717690     0.08600
C3049       C  0.62455814  0.11191953  0.86559344    -0.13600
C3050       C  0.66201326  0.10512203  0.86679857    -0.13600
C3051       C  0.68150969  0.09652167  0.84947334     0.08600
C3052       C  0.64748672  0.59705713  0.83549132    -0.13600
H3053       H  0.59767471  0.60837831  0.81995870     0.12600
H3054       H  0.60877418  0.11252384  0.87930035     0.12600
H3055       H  0.67443182  0.10138389  0.88134593     0.12600
H3056       H  0.66271897  0.59314218  0.82178570     0.12600
C3057       C  0.77582115  0.74835922  0.75990935    -0.13600
C3058       C  0.74388161  0.74625292  0.74839057     0.08600
C3059       C  0.71015183  0.74036275  0.75798522    -0.13600
C3060       C  0.70849846  0.73605715  0.77877557    -0.13600
C3061       C  0.74037965  0.73886460  0.79032233     0.08600
C3062       C  0.77399626  0.74537696  0.78072412    -0.13600
H3063       H  0.80211658  0.75284232  0.75280217     0.12600
H3064       H  0.68522929  0.73832931  0.74934897     0.12600
H3065       H  0.68226195  0.73122143  0.78587596     0.12600
H3066       H  0.79894778  0.74754288  0.78932741     0.12600
C3067       C  0.81733728  0.89703406  0.66901976    -0.13600
C3068       C  0.81304337  0.91621706  0.68684861     0.08600
C3069       C  0.81795236  0.89805188  0.70514548    -0.13600
C3070       C  0.81997217  0.85996737  0.70567120    -0.13600
C3071       C  0.81711296  0.84036450  0.68789440     0.08600
C3072       C  0.81952999  0.85895865  0.66955186    -0.13600
H3073       H  0.81324782  0.91074114  0.65479324     0.12600
H3074       H  0.81436522  0.91261072  0.71903107     0.12600
H3075       H  0.81769184  0.84593906  0.71993585     0.12600
H3076       H  0.81693744  0.84409772  0.65570197     0.12600
C3077       C  0.67347929  0.60889207  0.66731226    -0.13600
C3078       C  0.67297525  0.59070446  0.68580739     0.08600
C3079       C  0.66731908  0.61066011  0.70327977    -0.13600
C3080       C  0.67064791  0.64865012  0.70267853    -0.13600
C3081       C  0.67926236  0.66610819  0.68458651     0.08600
C3082       C  0.67708957  0.64679525  0.66670544    -0.13600
H3083       H  0.67793104  0.59368833  0.65370423     0.12600
H3084       H  0.66696880  0.59687342  0.71766275     0.12600
H3085       H  0.67229660  0.66344945  0.71659026     0.12600
H3086       H  0.68378010  0.66009813  0.65264427     0.12600
C3087       C  0.76855853  0.53415048  0.75942665    -0.13600
C3088       C  0.75338932  0.00617121  0.74940825     0.08600
C3089       C  0.73022087  0.98548422  0.76192467    -0.13600
C3090       C  0.73288925  0.98803789  0.78270692    -0.13600
C3091       C  0.75871877  0.01142740  0.79147607     0.08600
C3092       C  0.76933494  0.53676746  0.78023984    -0.13600
H3093       H  0.78644932  0.55170292  0.75069552     0.12600
H3094       H  0.70980413  0.96745865  0.75566656     0.12600
H3095       H  0.71443180  0.97193340  0.79190265     0.12600
H3096       H  0.78792735  0.55610477  0.78699879     0.12600
C3097       C  0.98701507  0.76233383  0.75787867    -0.13600
C3098       C  0.49557905  0.74661454  0.74774004     0.08600
C3099       C  0.46206334  0.74526352  0.75807020    -0.13600
C3100       C  0.46123314  0.74186186  0.77890205    -0.13600
C3101       C  0.49386945  0.73841417  0.78975112     0.08600
C3102       C  0.98597758  0.75918246  0.77873936    -0.13600
H3103       H  0.98587825  0.78924572  0.75099669     0.12600
H3104       H  0.43646095  0.74698754  0.75000092     0.12600
H3105       H  0.43505775  0.74091883  0.78650869     0.12600
H3106       H  0.98447810  0.78379728  0.78759314     0.12600
C3107       C  0.43005228  0.89784342  0.66931685    -0.13600
C3108       C  0.91948508  0.89872595  0.68789852     0.08600
C3109       C  0.91577929  0.87955933  0.70596614    -0.13600
C3110       C  0.91225131  0.84155954  0.70583487    -0.13600
C3111       C  0.91336318  0.82295371  0.68764742     0.08600
C3112       C  0.42804206  0.85978189  0.66884187    -0.13600
H3113       H  0.43397439  0.91279176  0.65543382     0.12600
H3114       H  0.92065767  0.89319219  0.72000303     0.12600
H3115       H  0.91530938  0.82660648  0.71977104     0.12600
H3116       H  0.43071045  0.84614092  0.65461757     0.12600
C3117       C  0.56685715  0.60596152  0.70422589    -0.13600
C3118       C  0.05979602  0.58241329  0.68106091     0.08600
C3119       C  0.05987281  0.60061487  0.66260801    -0.13600
C3120       C  0.06057501  0.63865674  0.66213006    -0.13600
C3121       C  0.06086366  0.65781946  0.68012413     0.08600
C3122       C  0.56829235  0.64401693  0.70388587    -0.13600
H3123       H  0.56371466  0.59192665  0.71844371     0.12600
H3124       H  0.05278294  0.58609803  0.64912176     0.12600
H3125       H  0.05387357  0.65264884  0.64828487     0.12600
H3126       H  0.56615071  0.65861580  0.71784806     0.12600
C3127       C  0.52780440  0.99319845  0.75918740    -0.13600
C3128       C  0.49154128  0.51253988  0.74955405     0.08600
C3129       C  0.97671515  0.54549841  0.75704425    -0.13600
C3130       C  0.98070503  0.55326894  0.77733850    -0.13600
C3131       C  0.51270269  0.02852584  0.78879470     0.08600
C3132       C  0.53155722  0.99959892  0.77962113    -0.13600
H3133       H  0.54291498  0.97083377  0.75259962     0.12600
H3134       H  0.95984392  0.56346016  0.74800780     0.12600
H3135       H  0.96646239  0.57667995  0.78340610     0.12600
H3136       H  0.54926276  0.98176951  0.78824322     0.12600
loop_ 
_geom_bond_atom_site_label_1 
_geom_bond_atom_site_label_2 
_geom_bond_distance 
_geom_bond_site_symmetry_2 
_ccdc_geom_bond_type 
O1           Cu9   2.038       .  S
O1         C1579   1.281   1_455  A
O2         Cu793   2.015       .  S
O2           C12   1.279   1_455  A
O3           Cu9   1.985   1_655  S
O3           C13   1.276       .  A
O4         Cu793   1.996   1_545  S
O4         C1582   1.273       .  A
O5          Cu10   1.987       .  S
O5           C14   1.278       .  A
O6         Cu794   2.009       .  S
O6         C1581   1.275       .  A
O7          Cu10   2.010       .  S
O7         C1580   1.278       .  A
O8         Cu794   1.991       .  S
O8           C11   1.275       .  A
Cu9         O786   2.035       .  S
Cu9         O788   1.979       .  S
Cu9       Cu2362   2.377   1_455  S
Cu10        O790   1.999   1_545  S
Cu10        O792   2.003       .  S
Cu10      Cu2361   2.378   1_545  S
C11        O1569   1.280       .  A
C11         C404   1.464       .  S
C12        O1575   1.279   1_565  A
C12         C776   1.484       .  S
C13        O1574   1.275       .  A
C13        C2324   1.457       .  S
C14        O1572   1.272       .  A
C14         C766   1.450       .  S
O15         Cu23   2.001       .  S
O15          C25   1.280       .  A
O16         Cu23   2.005       .  S
O16          C26   1.274       .  A
O17         Cu23   2.017       .  S
O17          C27   1.277       .  A
O18         Cu23   2.016       .  S
O18        C1596   1.279       .  A
O19         Cu24   2.013       .  S
O19          C28   1.278   1_455  A
O20         Cu24   2.013       .  S
O20        C1595   1.280   1_455  A
O21         Cu24   1.992   1_655  S
O21        C1594   1.277       .  A
O22         Cu24   1.982       .  S
O22        C1593   1.270       .  A
Cu23      Cu1592   2.380       .  S
Cu24      Cu1591   2.380   1_455  S
C25        O1590   1.270       .  A
C25         C769   1.449       .  S
C26        O1589   1.276       .  A
C26         C759   1.455       .  S
C27        O1588   1.281       .  A
C27         C419   1.472       .  S
C28        O1586   1.279       .  A
C28         C746   1.478       .  S
O29         Cu37   1.994       .  S
O29          C39   1.278       .  A
O30        Cu821   1.992   1_545  S
O30          C40   1.272       .  A
O31         Cu37   2.025       .  S
O31          C41   1.279       .  A
O32         Cu37   2.023       .  S
O32          C42   1.280       .  A
O33         Cu38   2.012       .  S
O33          C42   1.279       .  A
O34         Cu38   2.009       .  S
O34          C41   1.277       .  A
O35        Cu822   1.983       .  S
O35          C40   1.277       .  A
O36         Cu38   1.996       .  S
O36          C39   1.273       .  A
Cu37        O814   1.991       .  S
Cu37        Cu38   2.378       .  S
Cu38        O819   1.984       .  S
C39         C716   1.452       .  S
C40         C726   1.448       .  S
C41         C431   1.471       .  S
C42         C736   1.487       .  S
O43         Cu51   1.973       .  S
O43          C53   1.269       .  A
O44         Cu51   1.978       .  S
O44          C54   1.275       .  A
O45         Cu51   2.029       .  S
O45          C55   1.282       .  A
O46         Cu51   2.026       .  S
O46          C56   1.280       .  A
O47         Cu52   2.000       .  S
O47          C56   1.276       .  A
O48         Cu52   2.007       .  S
O48          C55   1.275       .  A
O49         Cu52   2.004       .  S
O49          C54   1.274       .  A
O50         Cu52   2.005       .  S
O50          C53   1.281       .  A
Cu51        Cu52   2.381       .  S
C53         C729   1.448       .  S
C54         C719   1.451       .  S
C55         C445   1.471       .  S
C56         C706   1.474       .  S
O57         Cu65   2.024       .  S
O57         C851   1.281       .  A
O58         Cu65   2.027       .  S
O58         C852   1.278       .  A
O59       Cu1633   2.002   1_455  S
O59         C853   1.274       .  A
O60         Cu65   2.003       .  S
O60         C854   1.280   1_545  A
O61         Cu66   1.979       .  S
O61          C70   1.270       .  A
O62       Cu1634   1.971       .  S
O62          C69   1.276       .  A
O63         Cu66   2.000       .  S
O63          C68   1.278       .  A
O64         Cu66   2.003       .  S
O64          C67   1.278       .  A
Cu65       O1627   2.006       .  S
Cu65       Cu850   2.379       .  S
Cu66       O1630   1.965       .  S
Cu66       Cu849   2.379       .  S
C67         O841   1.280       .  A
C67        C2347   1.482       .  S
C68         O842   1.277       .  A
C68         C348   1.467       .  S
C69         O843   1.274       .  A
C69         C696   1.453       .  S
C70         O844   1.281       .  A
C70         C689   1.455       .  S
O71         Cu79   2.013       .  S
O71          C81   1.278       .  A
O72         Cu79   2.011       .  S
O72          C82   1.278       .  A
O73         Cu79   2.000   1_455  S
O73          C83   1.273       .  A
O74       Cu1647   1.983       .  S
O74          C84   1.277       .  A
O75       Cu1648   2.003       .  S
O75          C84   1.273       .  A
O76         Cu80   1.988       .  S
O76          C83   1.277       .  A
O77         Cu80   2.029       .  S
O77          C82   1.280   1_455  A
O78         Cu80   2.024       .  S
O78          C81   1.280   1_455  A
Cu79       O1642   1.986       .  S
Cu79        Cu80   2.378   1_655  S
Cu80       O1643   1.997   1_455  S
C81         C749   1.479       .  S
C82         C361   1.473       .  S
C83         C676   1.453       .  S
C84         C666   1.453       .  S
O85         Cu93   2.016       .  S
O85          C95   1.279       .  A
O86         Cu93   2.011       .  S
O86          C96   1.276       .  A
O87         Cu93   2.016       .  S
O87          C97   1.282       .  A
O88         Cu93   2.014       .  S
O88          C98   1.276       .  A
O89         Cu94   1.973       .  S
O89         C882   1.276   1_545  A
O90         Cu94   1.984       .  S
O90         C881   1.271       .  A
O91         Cu94   2.012       .  S
O91         C880   1.279       .  A
O92         Cu94   2.012       .  S
O92         C879   1.279       .  A
Cu93       Cu878   2.378       .  S
Cu94       Cu877   2.379   1_545  S
C95         O876   1.280       .  A
C95         C739   1.486       .  S
C96         O875   1.280       .  A
C96         C375   1.465       .  S
C97         O874   1.269       .  A
C97         C699   1.454       .  S
C98         O873   1.274       .  A
C98         C686   1.452       .  S
O99        Cu107   2.030       .  S
O99         C109   1.281       .  A
O100       Cu107   2.032       .  S
O100        C110   1.280       .  A
O101       Cu107   1.984       .  S
O101        C111   1.277       .  A
O102       Cu107   1.996       .  S
O102        C112   1.272       .  A
O103       Cu108   1.994       .  S
O103        C112   1.278       .  A
O104       Cu108   2.004       .  S
O104        C111   1.274       .  A
O105       Cu108   1.991       .  S
O105        C110   1.275       .  A
O106       Cu108   1.991       .  S
O106        C109   1.275       .  A
Cu107      Cu108   2.378       .  S
C109        C709   1.472       .  S
C110        C389   1.466       .  S
C111        C679   1.453       .  S
C112        C669   1.454       .  S
O113       Cu121   2.014       .  S
O113        C123   1.276       .  A
O114       Cu121   2.013       .  S
O114        C124   1.279       .  A
O115       Cu121   2.009       .  S
O115        C125   1.275       .  A
O116       Cu905   2.010       .  S
O116        C126   1.281       .  A
O117       Cu906   1.980   1_545  S
O117       C1694   1.270       .  A
O118       Cu122   1.982       .  S
O118       C1693   1.276       .  A
O119       Cu122   2.013       .  S
O119       C1692   1.279       .  A
O120       Cu122   2.010       .  S
O120       C1691   1.280       .  A
Cu121       O900   1.997       .  S
Cu121     Cu1690   2.378       .  S
Cu122       O901   1.979   1_655  S
Cu122     Cu1689   2.378       .  S
C123       O1688   1.280       .  A
C123        C180   1.467       .  S
C124       O1687   1.280       .  A
C124        C656   1.487       .  S
C125       O1686   1.276       .  A
C125        C639   1.455       .  S
C126       O1685   1.270       .  A
C126        C646   1.453       .  S
O127       Cu135   1.999       .  S
O127       C1705   1.273       .  A
O128       Cu135   1.995   1_655  S
O128       C1706   1.278       .  A
O129       Cu135   2.019       .  S
O129       C1707   1.277   1_455  A
O130       Cu135   2.014       .  S
O130       C1708   1.279       .  A
O131       Cu136   2.013       .  S
O131        C140   1.278       .  A
O132       Cu136   2.003       .  S
O132        C139   1.278       .  A
O133       Cu136   1.995       .  S
O133        C138   1.273       .  A
O134       Cu136   1.976       .  S
O134        C137   1.277       .  A
Cu135     Cu1704   2.378   1_455  S
Cu136     Cu1703   2.378       .  S
C137       O1695   1.273       .  A
C137        C649   1.452       .  S
C138       O1696   1.279       .  A
C138        C636   1.455       .  S
C139       O1697   1.278       .  A
C139        C194   1.466       .  S
C140       O1698   1.279       .  A
C140        C626   1.477       .  S
O141       Cu149   1.984       .  S
O141        C151   1.277       .  A
O142       Cu933   1.995   1_545  S
O142        C152   1.272       .  A
O143       Cu149   2.029       .  S
O143        C153   1.280       .  A
O144       Cu149   2.025       .  S
O144        C154   1.280       .  A
O145       Cu150   1.999       .  S
O145        C154   1.276       .  A
O146       Cu150   1.998       .  S
O146        C153   1.277       .  A
O147       Cu934   1.987       .  S
O147        C152   1.278       .  A
O148       Cu150   2.000       .  S
O148        C151   1.273       .  A
Cu149       O926   1.991       .  S
Cu149      Cu150   2.379       .  S
Cu150       O931   1.982       .  S
C151        C596   1.452       .  S
C152        C606   1.451       .  S
C153        C207   1.469       .  S
C154        C616   1.474       .  S
O155       Cu163   1.994       .  S
O155        C165   1.272       .  A
O156       Cu163   1.991       .  S
O156        C166   1.277       .  A
O157       Cu163   2.024       .  S
O157        C167   1.280       .  A
O158       Cu163   2.020       .  S
O158        C168   1.280       .  A
O159       Cu164   2.004       .  S
O159        C168   1.278       .  A
O160       Cu164   2.001       .  S
O160        C167   1.275       .  A
O161       Cu164   1.995       .  S
O161        C166   1.273       .  A
O162       Cu164   1.990       .  S
O162        C165   1.278       .  A
Cu163      Cu164   2.378       .  S
C165        C609   1.452       .  S
C166        C599   1.452       .  S
C167        C222   1.465       .  S
C168        C586   1.483       .  S
O169       Cu177   1.990       .  S
O169       C1747   1.273   1_455  A
O170       Cu177   1.985   1_655  S
O170       C1748   1.274       .  A
O171       Cu961   2.052       .  S
O171       C1749   1.284       .  A
O172       Cu177   2.061       .  S
O172       C1750   1.286   1_455  A
O173       Cu178   2.007       .  S
O173        C182   1.275       .  A
O174       Cu962   2.013       .  S
O174        C181   1.276       .  A
O175       Cu178   2.033       .  S
O175        C180   1.281       .  A
O176       Cu178   2.033       .  S
O176        C179   1.283       .  A
Cu177       O955   2.073       .  S
Cu177     Cu1746   2.370   1_455  S
Cu178       O958   2.012       .  S
Cu178     Cu1745   2.371       .  S
C179       O1737   1.273       .  A
C179        C581   1.476       .  S
C180       O1738   1.274       .  A
C181       O1739   1.284       .  A
C181        C577   1.492       .  S
C182       O1740   1.285       .  A
C182        C574   1.492       .  S
O183       Cu191   2.036       .  S
O183       C1761   1.283   1_455  A
O184       Cu191   2.032       .  S
O184       C1762   1.281   1_455  A
O185       Cu191   2.009       .  S
O185       C1763   1.275   1_455  A
O186       Cu191   2.013       .  S
O186       C1764   1.276   1_455  A
O187       Cu192   2.050       .  S
O187        C196   1.284       .  A
O188       Cu192   2.059       .  S
O188        C195   1.285       .  A
O189       Cu192   1.990       .  S
O189        C194   1.274       .  A
O190       Cu192   1.990       .  S
O190        C193   1.273       .  A
Cu191     Cu1760   2.371   1_455  S
Cu192     Cu1759   2.371       .  S
C193       O1751   1.283       .  A
C193        C569   1.478       .  S
C194       O1752   1.281       .  A
C195       O1753   1.276       .  A
C195        C573   1.493       .  S
C196       O1754   1.277       .  A
C196        C578   1.492       .  S
O197       Cu205   2.034       .  S
O197        C207   1.280       .  A
O198       Cu205   2.037       .  S
O198        C208   1.282       .  A
O199       Cu205   2.016       .  S
O199        C209   1.277       .  A
O200       Cu989   2.021   1_545  S
O200        C210   1.277       .  A
O201       Cu990   2.047       .  S
O201        C210   1.284       .  A
O202       Cu206   2.041       .  S
O202        C209   1.283       .  A
O203       Cu206   2.001       .  S
O203        C208   1.276       .  A
O204       Cu206   1.994       .  S
O204        C207   1.275       .  A
Cu205       O984   2.024       .  S
Cu205      Cu206   2.371       .  S
Cu206       O985   2.041       .  S
C208        C565   1.484       .  S
C209        C557   1.490       .  S
C210        C561   1.494       .  S
O211       Cu219   2.012       .  S
O211        C221   1.276       .  A
O212       Cu219   2.007       .  S
O212        C222   1.276       .  A
O213       Cu219   2.043       .  S
O213        C223   1.283       .  A
O214       Cu219   2.059       .  S
O214        C224   1.285       .  A
O215       Cu220   2.008       .  S
O215        C224   1.276       .  A
O216       Cu220   2.017       .  S
O216        C223   1.277       .  A
O217       Cu220   2.018       .  S
O217        C222   1.279       .  A
O218       Cu220   2.022       .  S
O218        C221   1.281       .  A
Cu219      Cu220   2.371       .  S
C221        C553   1.483       .  S
C223        C558   1.490       .  S
C224        C562   1.492       .  S
O225       Cu233   2.023       .  S
O225        C235   1.278       .  A
O226      Cu1801   2.006   1_455  S
O226        C236   1.275       .  A
O227       Cu233   2.030       .  S
O227        C237   1.280       .  A
O228       Cu233   2.031       .  S
O228        C238   1.283       .  A
O229       Cu234   1.984       .  S
O229       C1022   1.271       .  A
O230       Cu234   1.979       .  S
O230       C1021   1.272       .  A
O231      Cu1802   2.067       .  S
O231       C1020   1.287       .  A
O232       Cu234   2.063       .  S
O232       C1019   1.287       .  A
Cu233      O1794   2.008       .  S
Cu233     Cu1018   2.371       .  S
Cu234      O1799   2.067       .  S
Cu234     Cu1017   2.371       .  S
C235       O1016   1.283       .  A
C235        C541   1.492       .  S
C236       O1015   1.284       .  A
C236        C545   1.488       .  S
C237       O1014   1.276       .  A
C237        C292   1.469       .  S
C238       O1013   1.274       .  A
C238        C549   1.484       .  S
O239       Cu247   1.996       .  S
O239        C249   1.275       .  A
O240       Cu247   1.996       .  S
O240        C250   1.275       .  A
O241      Cu1815   2.036       .  S
O241        C251   1.281       .  A
O242       Cu247   2.036       .  S
O242        C252   1.282       .  A
O243       Cu248   2.025       .  S
O243        C252   1.279       .  A
O244      Cu1816   2.020       .  S
O244        C251   1.279       .  A
O245       Cu248   2.035       .  S
O245        C250   1.281       .  A
O246       Cu248   2.042       .  S
O246        C249   1.282       .  A
Cu247      O1809   2.039       .  S
Cu247      Cu248   2.371       .  S
Cu248      O1812   2.019       .  S
C249        C537   1.479       .  S
C250        C306   1.470       .  S
C251        C533   1.489       .  S
C252        C529   1.491       .  S
O253       Cu261   2.058       .  S
O253       C1047   1.285       .  A
O254       Cu261   2.062       .  S
O254       C1048   1.286       .  A
O255       Cu261   1.995       .  S
O255       C1049   1.272       .  A
O256       Cu261   1.992       .  S
O256       C1050   1.272       .  A
O257       Cu262   2.053       .  S
O257        C266   1.284       .  A
O258       Cu262   2.046       .  S
O258        C265   1.284       .  A
O259       Cu262   1.970       .  S
O259        C264   1.270       .  A
O260       Cu262   1.972       .  S
O260        C263   1.271       .  A
Cu261     Cu1046   2.370       .  S
Cu262     Cu1045   2.372       .  S
C263       O1037   1.283       .  A
C263        C320   1.467       .  S
C264       O1038   1.285       .  A
C264        C525   1.474       .  S
C265       O1039   1.276       .  A
C265        C546   1.488       .  S
C266       O1040   1.276       .  A
C266        C542   1.493       .  S
O267       Cu275   2.043       .  S
O267        C277   1.282       .  A
O268       Cu275   2.029       .  S
O268        C278   1.280       .  A
O269       Cu275   2.011       .  S
O269        C279   1.276       .  A
O270       Cu275   2.012       .  S
O270        C280   1.277       .  A
O271       Cu276   2.014       .  S
O271        C280   1.278       .  A
O272       Cu276   2.013       .  S
O272        C279   1.280       .  A
O273       Cu276   2.028       .  S
O273        C278   1.279       .  A
O274       Cu276   2.017       .  S
O274        C277   1.278       .  A
Cu275      Cu276   2.372       .  S
C277        C530   1.489       .  S
C278        C534   1.488       .  S
C279        C521   1.479       .  S
C280        C335   1.466       .  S
O281       Cu289   2.008       .  S
O281       C1075   1.279       .  A
O282       Cu289   2.002       .  S
O282       C1076   1.278       .  A
O283       Cu289   1.968       .  S
O283       C1077   1.275   1_545  A
O284      Cu1857   1.981   1_455  S
O284       C1078   1.270       .  A
O285      Cu1858   2.000       .  S
O285        C294   1.279       .  A
O286       Cu290   2.000       .  S
O286        C293   1.273       .  A
O287       Cu290   2.029       .  S
O287        C292   1.279       .  A
O288       Cu290   2.025       .  S
O288        C291   1.280       .  A
Cu289      O1852   1.980       .  S
Cu289     Cu1074   2.379   1_545  S
Cu290      O1853   2.001       .  S
Cu290     Cu1073   2.377       .  S
C291       O1065   1.279       .  A
C291        C659   1.487       .  S
C292       O1066   1.277       .  A
C293       O1067   1.277       .  A
C293        C502   1.450       .  S
C294       O1068   1.272       .  A
C294        C512   1.454       .  S
O295       Cu303   2.004       .  S
O295        C305   1.277       .  A
O296       Cu303   2.004       .  S
O296        C306   1.277       .  A
O297       Cu303   1.991       .  S
O297        C307   1.279       .  A
O298      Cu1871   1.992   1_455  S
O298        C308   1.272       .  A
O299      Cu1872   1.996       .  S
O299        C308   1.278       .  A
O300       Cu304   1.987       .  S
O300        C307   1.271       .  A
O301       Cu304   2.027       .  S
O301        C306   1.279       .  A
O302       Cu304   2.028       .  S
O302        C305   1.280       .  A
Cu303      O1866   1.993       .  S
Cu303      Cu304   2.381       .  S
Cu304      O1867   1.992       .  S
C305        C629   1.476       .  S
C307        C482   1.449       .  S
C308        C492   1.453       .  S
O309       Cu317   2.008       .  S
O309        C319   1.277       .  A
O310       Cu317   2.004       .  S
O310        C320   1.279       .  A
O311       Cu317   1.976       .  S
O311        C321   1.269       .  A
O312       Cu317   1.979       .  S
O312        C322   1.276       .  A
O313       Cu318   2.000       .  S
O313       C1106   1.271       .  A
O314       Cu318   2.009       .  S
O314       C1105   1.281   1_545  A
O315       Cu318   2.025       .  S
O315       C1104   1.277       .  A
O316       Cu318   2.015       .  S
O316       C1103   1.279       .  A
Cu317     Cu1102   2.381       .  S
Cu318     Cu1101   2.379       .  S
C319       O1100   1.279       .  A
C319        C619   1.472       .  S
C320       O1099   1.276       .  A
C321       O1098   1.280       .  A
C321        C505   1.450       .  S
C322       O1097   1.274       .  A
C322        C515   1.453       .  S
O323       Cu331   2.000       .  S
O323        C333   1.273       .  A
O324       Cu331   1.998       .  S
O324        C334   1.278       .  A
O325       Cu331   2.006       .  S
O325        C335   1.277       .  A
O326       Cu331   2.012       .  S
O326        C336   1.279       .  A
O327       Cu332   2.011       .  S
O327        C336   1.279       .  A
O328       Cu332   2.020       .  S
O328        C335   1.279       .  A
O329       Cu332   1.982       .  S
O329        C334   1.268       .  A
O330       Cu332   1.980       .  S
O330        C333   1.277       .  A
Cu331      Cu332   2.377       .  S
C333        C495   1.451       .  S
C334        C485   1.449       .  S
C336        C589   1.483       .  S
O337       Cu345   2.048       .  S
O337       C1131   1.285       .  A
O338       Cu345   2.046       .  S
O338       C1132   1.282       .  A
O339       Cu345   2.005       .  S
O339       C1133   1.275       .  A
O340      Cu1913   2.005       .  S
O340       C1134   1.275       .  A
O341      Cu1914   2.064       .  S
O341        C350   1.287       .  A
O342       Cu346   2.065       .  S
O342        C349   1.287       .  A
O343       Cu346   1.968       .  S
O343        C348   1.270       .  A
O344       Cu346   1.969       .  S
O344        C347   1.270       .  A
Cu345      O1908   2.016       .  S
Cu345     Cu1130   2.371       .  S
Cu346      O1909   2.066       .  S
Cu346     Cu1129   2.370       .  S
C347       O1121   1.286       .  A
C347        C550   1.478   1_556  S
C348       O1122   1.284       .  A
C349       O1123   1.272       .  A
C349        C473   1.487       .  S
C350       O1124   1.273       .  A
C350        C477   1.492       .  S
O351      Cu1927   2.007       .  S
O351        C361   1.277       .  A
O352       Cu359   2.005       .  S
O352        C362   1.278       .  A
O353      Cu1927   2.051   1_455  S
O353        C363   1.283       .  A
O354       Cu359   2.049       .  S
O354        C364   1.283       .  A
O355       Cu360   2.031       .  S
O355        C364   1.279       .  A
O356      Cu1928   2.023   1_455  S
O356        C363   1.278       .  A
O357       Cu360   2.031       .  S
O357        C362   1.279       .  A
O358      Cu1928   2.033   1_455  S
O358        C361   1.280   1_455  A
Cu359      O1919   2.005       .  S
Cu359      O1921   2.056       .  S
Cu359      Cu360   2.369       .  S
Cu360      O1924   2.018       .  S
Cu360      O1926   2.030       .  S
C362        C538   1.486   1_556  S
C363        C469   1.495       .  S
C364        C465   1.497       .  S
O365       Cu373   1.995       .  S
O365       C1159   1.274       .  A
O366       Cu373   2.001       .  S
O366       C1160   1.273       .  A
O367       Cu373   2.051       .  S
O367       C1161   1.284       .  A
O368       Cu373   2.054       .  S
O368       C1162   1.285       .  A
O369       Cu374   1.993       .  S
O369        C378   1.273       .  A
O370       Cu374   1.997       .  S
O370        C377   1.273       .  A
O371       Cu374   2.035       .  S
O371        C376   1.284       .  A
O372       Cu374   2.035       .  S
O372        C375   1.282       .  A
Cu373     Cu1158   2.371       .  S
Cu374     Cu1157   2.372       .  S
C375       O1149   1.272       .  A
C376       O1150   1.271       .  A
C376        C526   1.478   1_556  S
C377       O1151   1.286       .  A
C377        C474   1.488       .  S
C378       O1152   1.288       .  A
C378        C478   1.491       .  S
O379       Cu387   1.995       .  S
O379        C389   1.276       .  A
O380       Cu387   1.996       .  S
O380        C390   1.275       .  A
O381       Cu387   2.023       .  S
O381        C391   1.279       .  A
O382       Cu387   2.028       .  S
O382        C392   1.279       .  A
O383       Cu388   2.047       .  S
O383        C392   1.283       .  A
O384       Cu388   2.055       .  S
O384        C391   1.284       .  A
O385       Cu388   2.030       .  S
O385        C390   1.281       .  A
O386       Cu388   2.027       .  S
O386        C389   1.279       .  A
Cu387      Cu388   2.371       .  S
C390        C522   1.476   1_556  S
C391        C466   1.496       .  S
C392        C470   1.495       .  S
O393       Cu401   2.029   1_655  S
O393       C1971   1.282       .  A
O394       Cu401   2.033       .  S
O394       C1972   1.280   1_455  A
O395       Cu401   2.004       .  S
O395       C1973   1.275   1_455  A
O396      Cu1185   2.039   1_545  S
O396       C1974   1.280   1_455  A
O397      Cu1186   2.027   1_545  S
O397        C406   1.280       .  A
O398       Cu402   2.053       .  S
O398        C405   1.284       .  A
O399       Cu402   1.988       .  S
O399        C404   1.274       .  A
O400       Cu402   1.989       .  S
O400        C403   1.273       .  A
Cu401      O1180   2.018   1_455  S
Cu401     Cu1970   2.371   1_455  S
Cu402      O1181   2.047       .  S
Cu402     Cu1969   2.372       .  S
C403       O1961   1.283       .  A
C403        C582   1.476       .  S
C404       O1962   1.280       .  A
C405       O1963   1.275       .  A
C405        C457   1.487       .  S
C406       O1964   1.281       .  A
C406        C461   1.492       .  S
O407       Cu415   2.009       .  S
O407        C417   1.276       .  A
O408       Cu415   2.013       .  S
O408        C418   1.277       .  A
O409       Cu415   2.038       .  S
O409        C419   1.282       .  A
O410       Cu415   2.037       .  S
O410        C420   1.283       .  A
O411       Cu416   1.993       .  S
O411       C1988   1.273   1_455  A
O412       Cu416   1.995       .  S
O412       C1987   1.275   1_455  A
O413       Cu416   2.053       .  S
O413       C1986   1.284   1_455  A
O414       Cu416   2.043       .  S
O414       C1985   1.283   1_455  A
Cu415     Cu1984   2.370       .  S
Cu416     Cu1983   2.370   1_455  S
C417       O1982   1.284       .  A
C417        C458   1.488       .  S
C418       O1981   1.284       .  A
C418        C462   1.497       .  S
C419       O1980   1.274       .  A
C420       O1979   1.273       .  A
C420        C570   1.479       .  S
O421       Cu429   2.006       .  S
O421        C431   1.276       .  A
O422       Cu429   2.011       .  S
O422        C432   1.277       .  A
O423      Cu1213   2.054   1_545  S
O423        C433   1.285       .  A
O424       Cu429   2.060       .  S
O424        C434   1.285       .  A
O425       Cu430   2.000       .  S
O425        C434   1.274       .  A
O426      Cu1214   2.019   1_545  S
O426        C433   1.277       .  A
O427       Cu430   2.029       .  S
O427        C432   1.281       .  A
O428       Cu430   2.029       .  S
O428        C431   1.280       .  A
Cu429      O1207   2.057       .  S
Cu429      Cu430   2.370       .  S
Cu430      O1210   2.014       .  S
C432        C566   1.482       .  S
C433        C453   1.496       .  S
C434        C450   1.489       .  S
O435       Cu443   2.038       .  S
O435        C445   1.282       .  A
O436       Cu443   2.040       .  S
O436        C446   1.283       .  A
O437       Cu443   2.013       .  S
O437        C447   1.276       .  A
O438       Cu443   2.007       .  S
O438        C448   1.275       .  A
O439       Cu444   2.065       .  S
O439        C448   1.286       .  A
O440       Cu444   2.049       .  S
O440        C447   1.284       .  A
O441       Cu444   1.992       .  S
O441        C446   1.274       .  A
O442       Cu444   2.000       .  S
O442        C445   1.274       .  A
Cu443      Cu444   2.371       .  S
C446        C554   1.479       .  S
C447        C449   1.491       .  S
C448        C454   1.494       .  S
C449        C450   1.344       .  D
C449        H451   1.086       .  S
C450        H452   1.087       .  S
C453        C454   1.347       .  D
C453        H455   1.086       .  S
C454        H456   1.086       .  S
C457        C458   1.343       .  D
C457        H459   1.087       .  S
C458       H2028   1.087       .  S
H460       C2026   1.087       .  S
C461        C462   1.355       .  D
C461        H463   1.086       .  S
C462       H2032   1.086       .  S
H464       C2030   1.086       .  S
C465        C466   1.350       .  D
C465        H467   1.086       .  S
C466        H468   1.086       .  S
C469        C470   1.350       .  D
C469        H471   1.087       .  S
C470        H472   1.086       .  S
C473        C474   1.340       .  D
C473       H1259   1.087       .  S
C474        H476   1.087       .  S
H475       C1257   1.087       .  S
C477        C478   1.342       .  D
C477       H1263   1.087       .  S
C478        H480   1.087       .  S
H479       C1261   1.086   1_565  S
C481        C482   1.401       .  A
C481        C486   1.391       .  A
C481        H487   1.084       .  S
C482        C483   1.400       .  A
C483        C484   1.393       .  A
C483        H488   1.084       .  S
C484        C485   1.400       .  A
C484        H489   1.084       .  S
C485        C486   1.399       .  A
C486        H490   1.084       .  S
C491        C492   1.400       .  A
C491        C496   1.394       .  A
C491        H497   1.084       .  S
C492        C493   1.399       .  A
C493        C494   1.393       .  A
C493        H498   1.084       .  S
C494        C495   1.401       .  A
C494        H499   1.084       .  S
C495        C496   1.400       .  A
C496        H500   1.084       .  S
C501        C502   1.401       .  A
C501        C506   1.393       .  A
C501        H507   1.084       .  S
C502        C503   1.401       .  A
C503        C504   1.392       .  A
C503        H508   1.084       .  S
C504        C505   1.398       .  A
C504        H509   1.084       .  S
C505        C506   1.399       .  A
C506        H510   1.084       .  S
C511        C516   1.393       .  A
C511       C1296   1.399       .  A
C511        H517   1.084       .  S
C512        C513   1.399       .  A
C512       C1295   1.400       .  A
C513        C514   1.394       .  A
C513        H518   1.084       .  S
C514        C515   1.401       .  A
C514        H519   1.084       .  S
C515       C1300   1.402       .  A
C516       C1299   1.402       .  A
C516        H520   1.084       .  S
C521        C522   1.343       .  D
C521        H523   1.085       .  S
C522        H524   1.087       .  S
C525        C526   1.336       .  D
C525       H1311   1.087       .  S
C526        H528   1.087       .  S
H527       C1309   1.087       .  S
C529        C530   1.348       .  D
C529        H531   1.086       .  S
C530        H532   1.086       .  S
C533        C534   1.351       .  D
C533        H535   1.086       .  S
C534        H536   1.087       .  S
C537        C538   1.346       .  D
C537        H539   1.087       .  S
C538       H2108   1.086       .  S
H540       C2106   1.086       .  S
C541        C542   1.356       .  D
C541        H543   1.087       .  S
C542       H1328   1.086       .  S
H544       C1326   1.087       .  S
C545        C546   1.344       .  D
C545        H547   1.087       .  S
C546       H1332   1.087       .  S
H548       C1330   1.087       .  S
C549        C550   1.339       .  D
C549        H551   1.084       .  S
C550       H2904   1.087       .  S
H552       C2902   1.087   1_565  S
C553        C554   1.342       .  D
C553        H555   1.086       .  S
C554        H556   1.087       .  S
C557        C558   1.354       .  D
C557        H559   1.086       .  S
C558        H560   1.086       .  S
C561        C562   1.347       .  D
C561        H563   1.087       .  S
C562        H564   1.087       .  S
C565        C566   1.351       .  D
C565       H1351   1.086       .  S
C566        H568   1.086       .  S
H567       C1349   1.086       .  S
C569        C570   1.340       .  D
C569        H571   1.087       .  S
C570       H2140   1.087       .  S
H572       C2138   1.087       .  S
C573        C574   1.345       .  D
C573       H2143   1.087       .  S
C574        H576   1.087       .  S
H575       C2141   1.087   1_455  S
C577        C578   1.346       .  D
C577        H579   1.087       .  S
C578       H2148   1.087       .  S
H580       C2146   1.087   1_455  S
C581        C582   1.339       .  D
C581        H583   1.087       .  S
C582       H2936   1.087       .  S
H584       C2934   1.087   1_455  S
C585        C586   1.405       .  A
C585        C590   1.400       .  A
C585        H591   1.083       .  S
C586        C587   1.406       .  A
C587        C588   1.397       .  A
C587        H592   1.083       .  S
C588        C589   1.405       .  A
C588        H593   1.083       .  S
C589        C590   1.407       .  A
C590        H594   1.083       .  S
C595        C596   1.400       .  A
C595        C600   1.393       .  A
C595        H601   1.084       .  S
C596        C597   1.401       .  A
C597        C598   1.394       .  A
C597        H602   1.084       .  S
C598        C599   1.399       .  A
C598        H603   1.084       .  S
C599        C600   1.400       .  A
C600        H604   1.084       .  S
C605        C606   1.400       .  A
C605        C610   1.394       .  A
C605        H611   1.084       .  S
C606        C607   1.400       .  A
C607        C608   1.392       .  A
C607        H612   1.084       .  S
C608        C609   1.400       .  A
C608        H613   1.084       .  S
C609        C610   1.401       .  A
C610        H614   1.084       .  S
C615        C616   1.403       .  A
C615        C620   1.401       .  A
C615        H621   1.083       .  S
C616       C1401   1.405       .  A
C617        C618   1.398       .  A
C617       C1400   1.404       .  A
C617        H622   1.084       .  S
C618       C1403   1.404       .  A
C618        H623   1.083       .  S
C619        C620   1.405       .  A
C619       C1402   1.402       .  A
C620        H624   1.083       .  S
C625        C630   1.398       .  A
C625       C2194   1.404       .  A
C625        H631   1.083       .  S
C626        C627   1.406       .  A
C626       C2193   1.403       .  A
C627        C628   1.402       .  A
C627        H632   1.083       .  S
C628        C629   1.404       .  A
C628        H633   1.083       .  S
C629       C2198   1.405       .  A
C630       C2197   1.403       .  A
C630        H634   1.083       .  S
C635        C640   1.394       .  A
C635       C2204   1.400       .  A
C635        H641   1.084       .  S
C636        C637   1.401       .  A
C636       C2203   1.399       .  A
C637        C638   1.394       .  A
C637        H642   1.084       .  S
C638        C639   1.401       .  A
C638        H643   1.084       .  S
C639       C2208   1.402       .  A
C640       C2207   1.401       .  A
C640        H644   1.084       .  S
C645        C650   1.394       .  A
C645       C2214   1.400       .  A
C645        H651   1.084       .  S
C646        C647   1.399       .  A
C646       C2213   1.400       .  A
C647        C648   1.393       .  A
C647        H652   1.084       .  S
C648        C649   1.402       .  A
C648        H653   1.084       .  S
C649       C2218   1.402       .  A
C650       C2217   1.401       .  A
C650        H654   1.084       .  S
C655        C660   1.400       .  A
C655       C2224   1.406   1_455  A
C655        H661   1.083       .  S
C656       C2223   1.407       .  A
C656       C1441   1.406       .  A
C657        C658   1.397       .  A
C657       C1440   1.407       .  A
C657        H662   1.083       .  S
C658       C1443   1.405       .  A
C658        H663   1.083       .  S
C659       C1442   1.406       .  A
C659       C2228   1.407       .  A
C660       C2227   1.406   1_455  A
C660        H664   1.083       .  S
C665        C666   1.402       .  A
C665        C670   1.394       .  A
C665        H671   1.084       .  S
C666        C667   1.400       .  A
C667        C668   1.394       .  A
C667        H672   1.084       .  S
C668        C669   1.401       .  A
C668        H673   1.084       .  S
C669        C670   1.399       .  A
C670        H674   1.084       .  S
C675        C676   1.400       .  A
C675        C680   1.394       .  A
C675        H681   1.084       .  S
C676        C677   1.401       .  A
C677        C678   1.394       .  A
C677        H682   1.084       .  S
C678        C679   1.400       .  A
C678        H683   1.084       .  S
C679        C680   1.401       .  A
C680        H684   1.084       .  S
C685        C690   1.392       .  A
C685       C1470   1.401       .  A
C685        H691   1.084       .  S
C686        C687   1.403       .  A
C686       C1469   1.402       .  A
C687        C688   1.396       .  A
C687        H692   1.084       .  S
C688        C689   1.398       .  A
C688        H693   1.084       .  S
C689       C1474   1.399       .  A
C690       C1473   1.399       .  A
C690        H694   1.084       .  S
C695        C700   1.393       .  A
C695       C1480   1.400       .  A
C695        H701   1.084       .  S
C696        C697   1.404       .  A
C696       C1479   1.401       .  A
C697        C698   1.393       .  A
C697        H702   1.084       .  S
C698        C699   1.398       .  A
C698        H703   1.084       .  S
C699       C1484   1.400       .  A
C700       C1483   1.400       .  A
C700        H704   1.084       .  S
C705        C706   1.403       .  A
C705        C710   1.396       .  A
C705        H711   1.084       .  S
C706        C707   1.406       .  A
C707        C708   1.403       .  A
C707        H712   1.083       .  S
C708        C709   1.404       .  A
C708        H713   1.083       .  S
C709        C710   1.403       .  A
C710        H714   1.084       .  S
C715        C716   1.399       .  A
C715        C720   1.393       .  A
C715        H721   1.084       .  S
C716        C717   1.400       .  A
C717        C718   1.394       .  A
C717        H722   1.083       .  S
C718        C719   1.401       .  A
C718        H723   1.084       .  S
C719        C720   1.401       .  A
C720        H724   1.084       .  S
C725        C726   1.401       .  A
C725        C730   1.392       .  A
C725        H731   1.084       .  S
C726        C727   1.400       .  A
C727        C728   1.392       .  A
C727        H732   1.084       .  S
C728        C729   1.399       .  A
C728        H733   1.084       .  S
C729        C730   1.398       .  A
C730        H734   1.084       .  S
C735        C740   1.398       .  A
C735       C1520   1.407       .  A
C735        H741   1.083       .  S
C736        C737   1.406       .  A
C736       C1519   1.407       .  A
C737        C738   1.401       .  A
C737        H742   1.083       .  S
C738        C739   1.407       .  A
C738        H743   1.083       .  S
C739       C1524   1.406       .  A
C740       C1523   1.405       .  A
C740        H744   1.083       .  S
C745        C750   1.400       .  A
C745       C2314   1.404       .  A
C745        H751   1.083       .  S
C746        C747   1.405   1_655  A
C746       C2313   1.404       .  A
C747        C748   1.401       .  A
C747        H752   1.083       .  S
C748        C749   1.404   1_455  A
C748        H753   1.083       .  S
C749       C2318   1.406       .  A
C750       C2317   1.404       .  A
C750        H754   1.083       .  S
C755        C760   1.395       .  A
C755       C2324   1.402       .  A
C755        H761   1.084       .  S
C756       C1581   1.454       .  S
C756        C757   1.401       .  A
C756       C2323   1.401       .  A
C757        C758   1.395       .  A
C757        H762   1.083       .  S
C758        C759   1.400       .  A
C758        H763   1.084       .  S
C759       C2328   1.401       .  A
C760       C2327   1.400       .  A
C760        H764   1.084       .  S
C765        C770   1.393       .  A
C765       C2334   1.401       .  A
C765        H771   1.084       .  S
C766        C767   1.400       .  A
C766       C2333   1.401       .  A
C767        C768   1.391       .  A
C767        H772   1.084       .  S
C768        C769   1.399       .  A
C768        H773   1.084       .  S
C769       C2338   1.399       .  A
C770       C2337   1.399       .  A
C770        H774   1.084       .  S
C775        C780   1.402       .  A
C775       C1560   1.404   1_455  A
C775        H781   1.083       .  S
C776       C1559   1.406   1_655  A
C776       C2345   1.406   1_565  A
C777        C778   1.401       .  A
C777       C2344   1.408       .  A
C777        H782   1.083       .  S
C778       C3131   1.406       .  A
C778        H783   1.083       .  S
C779       C1635   1.488       .  S
C779        C780   1.409       .  A
C779       C3130   1.405   1_455  A
C780        H784   1.083       .  S
O785       Cu793   2.019       .  S
O785       C2363   1.278   1_455  A
O786        C796   1.282   1_455  A
O787       Cu793   2.001   1_655  S
O787        C797   1.279       .  A
O788       C2366   1.269       .  A
O789       Cu794   1.997       .  S
O789        C798   1.280       .  A
O790       C2365   1.273       .  A
O791       Cu794   1.995       .  S
O791       C2364   1.276       .  A
O792        C795   1.277       .  A
Cu793     Cu1578   2.378   1_465  S
Cu794     Cu1577   2.379       .  S
C795       O2353   1.279   1_545  A
C795       C1188   1.466   1_545  S
C796       O2359   1.277       .  A
C796       C1560   1.487       .  S
C797       O2358   1.272       .  A
C797       C3108   1.455       .  S
C798       O2356   1.269       .  A
C798       C1550   1.447       .  S
O799       Cu807   2.000       .  S
O799        C809   1.280       .  A
O800       Cu807   2.002       .  S
O800        C810   1.274       .  A
O801       Cu807   2.003       .  S
O801        C811   1.276       .  A
O802       Cu807   2.004       .  S
O802       C2380   1.277       .  A
O803       Cu808   2.029       .  S
O803        C812   1.281   1_455  A
O804       Cu808   2.030       .  S
O804       C2379   1.281   1_455  A
O805       Cu808   1.970   1_655  S
O805       C2378   1.275       .  A
O806       Cu808   1.985       .  S
O806       C2377   1.270       .  A
Cu807     Cu2376   2.380       .  S
Cu808     Cu2375   2.377   1_455  S
C809       O2374   1.269       .  A
C809       C1553   1.448       .  S
C810       O2373   1.276       .  A
C810       C1543   1.452       .  S
C811       O2372   1.281       .  A
C811       C1203   1.473       .  S
C812       O2370   1.277       .  A
C812       C1530   1.477       .  S
O813       Cu821   1.996       .  S
O813        C823   1.278       .  A
O814        C824   1.272       .  A
O815       Cu821   2.030       .  S
O815        C825   1.279       .  A
O816       Cu821   2.023       .  S
O816        C826   1.280       .  A
O817       Cu822   2.007       .  S
O817        C826   1.278   1_545  A
O818       Cu822   2.007       .  S
O818        C825   1.278   1_545  A
O819        C824   1.278       .  A
O820       Cu822   1.996   1_565  S
O820        C823   1.272       .  A
Cu821      Cu822   2.378   1_565  S
C823       C1500   1.454       .  S
C824       C1510   1.450       .  S
C825       C1215   1.472       .  S
C826       C1520   1.485   1_565  S
O827       Cu835   1.980       .  S
O827        C837   1.270       .  A
O828       Cu835   1.984       .  S
O828        C838   1.277       .  A
O829       Cu835   2.020       .  S
O829        C839   1.280       .  A
O830       Cu835   2.019       .  S
O830        C840   1.279       .  A
O831       Cu836   2.009       .  S
O831        C840   1.278       .  A
O832       Cu836   2.007       .  S
O832        C839   1.275       .  A
O833       Cu836   2.001       .  S
O833        C838   1.274       .  A
O834       Cu836   2.005       .  S
O834        C837   1.280       .  A
Cu835      Cu836   2.381       .  S
C837       C1513   1.451       .  S
C838       C1503   1.453       .  S
C839       C1229   1.467       .  S
C840       C1490   1.473       .  S
O841       Cu849   2.018       .  S
O842       Cu849   2.023       .  S
O843      Cu2417   2.010   1_455  S
O844       Cu849   2.016       .  S
O845       Cu850   1.983   1_565  S
O845        C854   1.271       .  A
O846      Cu2418   1.980   1_545  S
O846        C853   1.276       .  A
O847       Cu850   2.002       .  S
O847        C852   1.278       .  A
O848       Cu850   2.002       .  S
O848        C851   1.278       .  A
Cu849      O2411   2.010       .  S
Cu850      O2414   1.977       .  S
C851       C3131   1.485       .  S
C852       C1132   1.467       .  S
C853       C1480   1.452       .  S
C854       C1473   1.451       .  S
O855       Cu863   2.021       .  S
O855        C865   1.280       .  A
O856       Cu863   2.020       .  S
O856        C866   1.279       .  A
O857       Cu863   1.987   1_455  S
O857        C867   1.271       .  A
O858      Cu2431   1.980       .  S
O858        C868   1.277       .  A
O859      Cu2432   2.000       .  S
O859        C868   1.273       .  A
O860       Cu864   2.001       .  S
O860        C867   1.279       .  A
O861       Cu864   2.016       .  S
O861        C866   1.278   1_455  A
O862       Cu864   2.017       .  S
O862        C865   1.279   1_455  A
Cu863      O2426   1.983       .  S
Cu863      Cu864   2.380   1_655  S
Cu864      O2427   1.995   1_455  S
C865       C1533   1.482       .  S
C866       C1145   1.471       .  S
C867       C1460   1.452       .  S
C868       C1450   1.452       .  S
O869       Cu877   2.013       .  S
O869        C879   1.279   1_565  A
O870       Cu877   2.014   1_545  S
O870        C880   1.277       .  A
O871       Cu877   2.001   1_545  S
O871        C881   1.279       .  A
O872       Cu877   2.004       .  S
O872        C882   1.274       .  A
O873       Cu878   1.962       .  S
O874       Cu878   1.976       .  S
O875       Cu878   2.012       .  S
O876       Cu878   2.015       .  S
C879       C1523   1.483       .  S
C880       C1159   1.468       .  S
C881       C1483   1.451       .  S
C882       C1470   1.450       .  S
O883       Cu891   2.022       .  S
O883        C893   1.280       .  A
O884       Cu891   2.026       .  S
O884        C894   1.279       .  A
O885       Cu891   1.978       .  S
O885        C895   1.276       .  A
O886       Cu891   1.992       .  S
O886        C896   1.272       .  A
O887       Cu892   1.997       .  S
O887        C896   1.279       .  A
O888       Cu892   2.004       .  S
O888        C895   1.274       .  A
O889       Cu892   2.002       .  S
O889        C894   1.277       .  A
O890       Cu892   2.004       .  S
O890        C893   1.277       .  A
Cu891      Cu892   2.378       .  S
C893       C1493   1.475       .  S
C894       C1173   1.468       .  S
C895       C1463   1.451       .  S
C896       C1453   1.453       .  S
O897       Cu905   2.010       .  S
O897        C907   1.276       .  A
O898       Cu905   2.003       .  S
O898        C908   1.278       .  A
O899       Cu905   2.012   1_565  S
O899        C909   1.275       .  A
O900        C910   1.279       .  A
O901       C2478   1.270       .  A
O902       Cu906   1.975   1_655  S
O902       C2477   1.276       .  A
O903       Cu906   2.025       .  S
O903       C2476   1.281   1_465  A
O904       Cu906   2.026   1_655  S
O904       C2475   1.281   1_565  A
Cu905     Cu2474   2.378   1_545  S
Cu906     Cu2473   2.378   1_465  S
C907       O2472   1.280   1_545  A
C907        C964   1.469       .  S
C908       O2471   1.280   1_545  A
C908       C1440   1.484       .  S
C909       O2470   1.275       .  A
C909       C1423   1.455       .  S
C910       O2469   1.270       .  A
C910       C1430   1.447       .  S
O911       Cu919   1.988       .  S
O911       C2489   1.272       .  A
O912       Cu919   2.006   1_655  S
O912       C2490   1.280       .  A
O913       Cu919   2.011       .  S
O913       C2491   1.278   1_455  A
O914       Cu919   2.002   1_655  S
O914       C2492   1.277       .  A
O915       Cu920   2.011       .  S
O915        C924   1.278       .  A
O916       Cu920   2.008       .  S
O916        C923   1.278       .  A
O917       Cu920   1.995       .  S
O917        C922   1.273       .  A
O918       Cu920   1.985       .  S
O918        C921   1.277       .  A
Cu919     Cu2488   2.382   1_455  S
Cu920     Cu2487   2.381       .  S
C921       O2479   1.272       .  A
C921       C1433   1.447       .  S
C922       O2480   1.279       .  A
C922       C1420   1.457       .  S
C923       O2481   1.279       .  A
C923        C978   1.470       .  S
C924       O2482   1.278       .  A
C924       C1410   1.470       .  S
O925       Cu933   1.992       .  S
O925        C935   1.277       .  A
O926        C936   1.272       .  A
O927       Cu933   2.033       .  S
O927        C937   1.280       .  A
O928       Cu933   2.027       .  S
O928        C938   1.280   1_565  A
O929       Cu934   2.000       .  S
O929        C938   1.276       .  A
O930       Cu934   2.000       .  S
O930        C937   1.277   1_545  A
O931        C936   1.277       .  A
O932       Cu934   2.007   1_565  S
O932        C935   1.274       .  A
Cu933      Cu934   2.378   1_565  S
C935       C1380   1.457       .  S
C936       C1390   1.448       .  S
C937        C991   1.471       .  S
C938       C1400   1.473       .  S
O939       Cu947   1.979       .  S
O939        C949   1.270       .  A
O940       Cu947   1.981       .  S
O940        C950   1.276       .  A
O941       Cu947   2.028       .  S
O941        C951   1.281       .  A
O942       Cu947   2.024       .  S
O942        C952   1.281       .  A
O943       Cu948   1.999       .  S
O943        C952   1.277       .  A
O944       Cu948   2.003       .  S
O944        C951   1.276       .  A
O945       Cu948   2.010       .  S
O945        C950   1.275       .  A
O946       Cu948   2.000       .  S
O946        C949   1.280       .  A
Cu947      Cu948   2.378       .  S
C949       C1393   1.448       .  S
C950       C1383   1.456       .  S
C951       C1006   1.469       .  S
C952       C1370   1.483       .  S
O953       Cu961   2.002       .  S
O953       C2531   1.277       .  A
O954       Cu961   2.004       .  S
O954       C2532   1.275       .  A
O955       C2533   1.286   1_455  A
O956       Cu961   2.040   1_565  S
O956       C2534   1.283       .  A
O957       Cu962   2.019   1_565  S
O957        C966   1.277       .  A
O958        C965   1.276       .  A
O959       Cu962   2.034       .  S
O959        C964   1.281       .  A
O960       Cu962   2.034       .  S
O960        C963   1.281       .  A
Cu961     Cu2530   2.370       .  S
Cu962     Cu2529   2.370       .  S
C963       O2521   1.276       .  A
C963       C1365   1.483       .  S
C964       O2522   1.274       .  A
C965       O2523   1.286       .  A
C965       C1361   1.497       .  S
C966       O2524   1.283       .  A
C966       C1358   1.492       .  S
O967       Cu975   2.025       .  S
O967       C2545   1.280   1_455  A
O968       Cu975   2.024       .  S
O968       C2546   1.280   1_455  A
O969       Cu975   2.005       .  S
O969       C2547   1.275   1_455  A
O970       Cu975   2.025       .  S
O970       C2548   1.278   1_455  A
O971       Cu976   2.057       .  S
O971        C980   1.285       .  A
O972       Cu976   2.058       .  S
O972        C979   1.284       .  A
O973       Cu976   2.006       .  S
O973        C978   1.276       .  A
O974       Cu976   2.012       .  S
O974        C977   1.278       .  A
Cu975     Cu2544   2.370   1_455  S
Cu976     Cu2543   2.370       .  S
C977       O2535   1.280       .  A
C977       C1353   1.484       .  S
C978       O2536   1.280       .  A
C979       O2537   1.276       .  A
C979       C1357   1.490       .  S
C980       O2538   1.278       .  A
C980       C1362   1.498       .  S
O981       Cu989   2.035       .  S
O981        C991   1.281       .  A
O982       Cu989   2.036       .  S
O982        C992   1.282       .  A
O983       Cu989   2.005       .  S
O983        C993   1.277       .  A
O984        C994   1.278       .  A
O985        C994   1.282       .  A
O986       Cu990   2.045   1_565  S
O986        C993   1.283       .  A
O987       Cu990   2.003       .  S
O987        C992   1.276   1_545  A
O988       Cu990   2.000       .  S
O988        C991   1.276   1_545  A
Cu989      Cu990   2.370   1_565  S
C992       C1349   1.483       .  S
C993       C1341   1.489       .  S
C994       C1345   1.492       .  S
O995      Cu1003   2.017       .  S
O995       C1005   1.277       .  A
O996      Cu1003   2.019       .  S
O996       C1006   1.278       .  A
O997      Cu1003   2.025       .  S
O997       C1007   1.280       .  A
O998      Cu1003   2.045       .  S
O998       C1008   1.283       .  A
O999      Cu1004   2.019       .  S
O999       C1008   1.278       .  A
O1000     Cu1004   2.025       .  S
O1000      C1007   1.279       .  A
O1001     Cu1004   2.014       .  S
O1001      C1006   1.278       .  A
O1002     Cu1004   2.015       .  S
O1002      C1005   1.280       .  A
Cu1003    Cu1004   2.371       .  S
C1005      C1337   1.483       .  S
C1007      C1342   1.485       .  S
C1008      C1346   1.491       .  S
O1009     Cu1017   1.999       .  S
O1009      C1019   1.273       .  A
O1010     Cu2585   1.991       .  S
O1010      C1020   1.272       .  A
O1011     Cu1017   2.039   1_565  S
O1011      C1021   1.282   1_565  A
O1012     Cu1017   2.043       .  S
O1012      C1022   1.285       .  A
O1013     Cu1018   2.006       .  S
O1014     Cu1018   2.003       .  S
O1015     Cu2586   2.049       .  S
O1016     Cu1018   2.042       .  S
Cu1017     O2578   1.992       .  S
Cu1018     O2583   2.050       .  S
C1019      C1325   1.491       .  S
C1020      C1329   1.489       .  S
C1021      C1076   1.465       .  S
C1022      C1333   1.478       .  S
O1023     Cu1031   1.993       .  S
O1023      C1033   1.275       .  A
O1024     Cu1031   1.992       .  S
O1024      C1034   1.275       .  A
O1025     Cu2599   2.035   1_455  S
O1025      C1035   1.281       .  A
O1026     Cu1031   2.035       .  S
O1026      C1036   1.281       .  A
O1027     Cu1032   2.028       .  S
O1027      C1036   1.279       .  A
O1028     Cu2600   2.016   1_455  S
O1028      C1035   1.278       .  A
O1029     Cu1032   2.033       .  S
O1029      C1034   1.280       .  A
O1030     Cu1032   2.039       .  S
O1030      C1033   1.282       .  A
Cu1031     O2593   2.035       .  S
Cu1031    Cu1032   2.371       .  S
Cu1032     O2596   2.022       .  S
C1033      C1321   1.478       .  S
C1034      C1090   1.468       .  S
C1035      C1317   1.487       .  S
C1036      C1313   1.492       .  S
O1037     Cu1045   2.048       .  S
O1038     Cu1045   2.050       .  S
O1039     Cu1045   2.010       .  S
O1040     Cu1045   2.011       .  S
O1041     Cu1046   2.071       .  S
O1041      C1050   1.288       .  A
O1042     Cu1046   2.062       .  S
O1042      C1049   1.287       .  A
O1043     Cu1046   1.968       .  S
O1043      C1048   1.269       .  A
O1044     Cu1046   1.967       .  S
O1044      C1047   1.270       .  A
C1047      C1104   1.468       .  S
C1048      C1309   1.478       .  S
C1049      C1330   1.489       .  S
C1050      C1326   1.491       .  S
O1051     Cu1059   2.044       .  S
O1051      C1061   1.282       .  A
O1052     Cu1059   2.026       .  S
O1052      C1062   1.280       .  A
O1053     Cu1059   2.018       .  S
O1053      C1063   1.278       .  A
O1054     Cu1059   2.019       .  S
O1054      C1064   1.278       .  A
O1055     Cu1060   2.014       .  S
O1055      C1064   1.278       .  A
O1056     Cu1060   2.014       .  S
O1056      C1063   1.280       .  A
O1057     Cu1060   2.024       .  S
O1057      C1062   1.279       .  A
O1058     Cu1060   2.020       .  S
O1058      C1061   1.278       .  A
Cu1059    Cu1060   2.372       .  S
C1061      C1314   1.491       .  S
C1062      C1318   1.486       .  S
C1063      C1305   1.482       .  S
C1064      C1119   1.468       .  S
O1065     Cu1073   2.012       .  S
O1066     Cu1073   2.006       .  S
O1067     Cu1073   1.976       .  S
O1068     Cu2641   1.991   1_455  S
O1069     Cu2642   2.007   1_545  S
O1069      C1078   1.280       .  A
O1070     Cu1074   2.006       .  S
O1070      C1077   1.274       .  A
O1071     Cu1074   2.018       .  S
O1071      C1076   1.277   1_565  A
O1072     Cu1074   2.014       .  S
O1072      C1075   1.279   1_565  A
Cu1073     O2636   1.988       .  S
Cu1074     O2637   2.007   1_565  S
C1075      C1443   1.483       .  S
C1077      C1286   1.450       .  S
C1078      C1296   1.452       .  S
O1079     Cu1087   1.997       .  S
O1079      C1089   1.276       .  A
O1080     Cu1087   1.998       .  S
O1080      C1090   1.277       .  A
O1081     Cu1087   1.982       .  S
O1081      C1091   1.277       .  A
O1082     Cu2655   2.000   1_455  S
O1082      C1092   1.273       .  A
O1083     Cu2656   1.989       .  S
O1083      C1092   1.277       .  A
O1084     Cu1088   1.999       .  S
O1084      C1091   1.273       .  A
O1085     Cu1088   2.027       .  S
O1085      C1090   1.279       .  A
O1086     Cu1088   2.021       .  S
O1086      C1089   1.280       .  A
Cu1087     O2650   1.997       .  S
Cu1087    Cu1088   2.379       .  S
Cu1088     O2651   1.991       .  S
C1089      C1413   1.474       .  S
C1091      C1266   1.451       .  S
C1092      C1276   1.454       .  S
O1093     Cu1101   2.010       .  S
O1093      C1103   1.278       .  A
O1094     Cu1101   2.003       .  S
O1094      C1104   1.279       .  A
O1095     Cu1101   1.978   1_565  S
O1095      C1105   1.270       .  A
O1096     Cu1101   1.976       .  S
O1096      C1106   1.275       .  A
O1097     Cu1102   2.004       .  S
O1098     Cu1102   2.006       .  S
O1099     Cu1102   2.019       .  S
O1100     Cu1102   2.015       .  S
C1103      C1403   1.478       .  S
C1105      C1289   1.451       .  S
C1106      C1299   1.450       .  S
O1107     Cu1115   2.004       .  S
O1107      C1117   1.274       .  A
O1108     Cu1115   2.001       .  S
O1108      C1118   1.279       .  A
O1109     Cu1115   2.001       .  S
O1109      C1119   1.275       .  A
O1110     Cu1115   2.001       .  S
O1110      C1120   1.277       .  A
O1111     Cu1116   2.024       .  S
O1111      C1120   1.281       .  A
O1112     Cu1116   2.030       .  S
O1112      C1119   1.281       .  A
O1113     Cu1116   1.983       .  S
O1113      C1118   1.270       .  A
O1114     Cu1116   1.983       .  S
O1114      C1117   1.276       .  A
Cu1115    Cu1116   2.378       .  S
C1117      C1279   1.454       .  S
C1118      C1269   1.451       .  S
C1120      C1373   1.484       .  S
O1121     Cu1129   2.061       .  S
O1122     Cu1129   2.054       .  S
O1123     Cu1129   1.988       .  S
O1124     Cu2697   2.002       .  S
O1125     Cu2698   2.053   1_565  S
O1125      C1134   1.285   1_565  A
O1126     Cu1130   2.056       .  S
O1126      C1133   1.285       .  A
O1127     Cu1130   1.980       .  S
O1127      C1132   1.272       .  A
O1128     Cu1130   1.978       .  S
O1128      C1131   1.271       .  A
Cu1129     O2692   2.002       .  S
Cu1130     O2693   2.046       .  S
C1131      C1334   1.477   1_556  S
C1133      C1257   1.490       .  S
C1134      C1261   1.490       .  S
O1135     Cu2711   2.013       .  S
O1135      C1145   1.277       .  A
O1136     Cu1143   2.007       .  S
O1136      C1146   1.278       .  A
O1137     Cu2711   2.053   1_455  S
O1137      C1147   1.283       .  A
O1138     Cu1143   2.046       .  S
O1138      C1148   1.283       .  A
O1139     Cu1144   2.030       .  S
O1139      C1148   1.279       .  A
O1140     Cu2712   2.023   1_455  S
O1140      C1147   1.278       .  A
O1141     Cu1144   2.026       .  S
O1141      C1146   1.279       .  A
O1142     Cu2712   2.023       .  S
O1142      C1145   1.279       .  A
Cu1143     O2703   2.009       .  S
Cu1143     O2705   2.053       .  S
Cu1143    Cu1144   2.369       .  S
Cu1144     O2708   2.017       .  S
Cu1144     O2710   2.027       .  S
C1146      C1322   1.484   1_556  S
C1147      C1253   1.496       .  S
C1148      C1249   1.497       .  S
O1149     Cu1157   1.983       .  S
O1150     Cu1157   1.988       .  S
O1151     Cu1157   2.058       .  S
O1152     Cu1157   2.071       .  S
O1153     Cu1158   2.006       .  S
O1153      C1162   1.275       .  A
O1154     Cu1158   2.010       .  S
O1154      C1161   1.276       .  A
O1155     Cu1158   2.034       .  S
O1155      C1160   1.284       .  A
O1156     Cu1158   2.028       .  S
O1156      C1159   1.281       .  A
C1160      C1310   1.483   1_556  S
C1161      C1258   1.490       .  S
C1162      C1262   1.491       .  S
O1163     Cu1171   2.003       .  S
O1163      C1173   1.277       .  A
O1164     Cu1171   2.002       .  S
O1164      C1174   1.276       .  A
O1165     Cu1171   2.020       .  S
O1165      C1175   1.278       .  A
O1166     Cu1171   2.028       .  S
O1166      C1176   1.279       .  A
O1167     Cu1172   2.049       .  S
O1167      C1176   1.283       .  A
O1168     Cu1172   2.055       .  S
O1168      C1175   1.283       .  A
O1169     Cu1172   2.030       .  S
O1169      C1174   1.281       .  A
O1170     Cu1172   2.026       .  S
O1170      C1173   1.279       .  A
Cu1171    Cu1172   2.370       .  S
C1174      C1306   1.478   1_556  S
C1175      C1250   1.495       .  S
C1176      C1254   1.496       .  S
O1177     Cu1185   2.020   1_545  S
O1177      C2755   1.279   1_445  A
O1178     Cu1185   2.020       .  S
O1178      C2756   1.279   1_455  A
O1179     Cu1185   2.021       .  S
O1179      C2757   1.278   1_455  A
O1180      C2758   1.278       .  A
O1181      C1190   1.283       .  A
O1182     Cu1186   2.038       .  S
O1182      C1189   1.281       .  A
O1183     Cu1186   2.008       .  S
O1183      C1188   1.277       .  A
O1184     Cu1186   2.014   1_545  S
O1184      C1187   1.277       .  A
Cu1185    Cu2754   2.371   1_455  S
Cu1186    Cu2753   2.371   1_565  S
C1187      O2745   1.279       .  A
C1187      C1366   1.479       .  S
C1188      O2746   1.278   1_565  A
C1189      O2747   1.279       .  A
C1189      C1241   1.491       .  S
C1190      O2748   1.277       .  A
C1190      C1245   1.493       .  S
O1191     Cu1199   2.031       .  S
O1191      C1201   1.280       .  A
O1192     Cu1199   2.029       .  S
O1192      C1202   1.279       .  A
O1193     Cu1199   2.014       .  S
O1193      C1203   1.279       .  A
O1194     Cu1199   2.019       .  S
O1194      C1204   1.279       .  A
O1195     Cu1200   2.017       .  S
O1195      C2772   1.278   1_455  A
O1196     Cu1200   2.017       .  S
O1196      C2771   1.277   1_455  A
O1197     Cu1200   2.038       .  S
O1197      C2770   1.282   1_455  A
O1198     Cu1200   2.031       .  S
O1198      C2769   1.281   1_455  A
Cu1199    Cu2768   2.371       .  S
Cu1200    Cu2767   2.371   1_455  S
C1201      O2766   1.280       .  A
C1201      C1242   1.491       .  S
C1202      O2765   1.282       .  A
C1202      C1246   1.491       .  S
C1203      O2764   1.278       .  A
C1204      O2763   1.279       .  A
C1204      C1354   1.483       .  S
O1205     Cu1213   1.998       .  S
O1205      C1215   1.275       .  A
O1206     Cu1213   2.003       .  S
O1206      C1216   1.276       .  A
O1207      C1217   1.285       .  A
O1208     Cu1213   2.057       .  S
O1208      C1218   1.285       .  A
O1209     Cu1214   2.007       .  S
O1209      C1218   1.275       .  A
O1210      C1217   1.276       .  A
O1211     Cu1214   2.038       .  S
O1211      C1216   1.282       .  A
O1212     Cu1214   2.039       .  S
O1212      C1215   1.281       .  A
Cu1213    Cu1214   2.370       .  S
C1216      C1350   1.484   1_565  S
C1217      C1237   1.495       .  S
C1218      C1234   1.492       .  S
O1219     Cu1227   2.037       .  S
O1219      C1229   1.282       .  A
O1220     Cu1227   2.041       .  S
O1220      C1230   1.282       .  A
O1221     Cu1227   2.013       .  S
O1221      C1231   1.276       .  A
O1222     Cu1227   2.007       .  S
O1222      C1232   1.275       .  A
O1223     Cu1228   2.065       .  S
O1223      C1232   1.286       .  A
O1224     Cu1228   2.053       .  S
O1224      C1231   1.284       .  A
O1225     Cu1228   1.990       .  S
O1225      C1230   1.274       .  A
O1226     Cu1228   1.989       .  S
O1226      C1229   1.273       .  A
Cu1227    Cu1228   2.371       .  S
C1230      C1338   1.477       .  S
C1231      C1233   1.492       .  S
C1232      C1238   1.494       .  S
C1233      C1234   1.345       .  D
C1233      H1235   1.086       .  S
C1234      H1236   1.087       .  S
C1237      C1238   1.346       .  D
C1237      H1239   1.086       .  S
C1238      H1240   1.087       .  S
C1241      C1242   1.350       .  D
C1241      H1243   1.086       .  S
C1242      H2812   1.086       .  S
H1244      C2810   1.086       .  S
C1245      C1246   1.354       .  D
C1245      H1247   1.086       .  S
C1246      H2816   1.086       .  S
H1248      C2814   1.086   1_455  S
C1249      C1250   1.350       .  D
C1249      H1251   1.086       .  S
C1250      H1252   1.086       .  S
C1253      C1254   1.350       .  D
C1253      H1255   1.087       .  S
C1254      H1256   1.086       .  S
C1257      C1258   1.344       .  D
C1258      H1260   1.087       .  S
C1261      C1262   1.357       .  D
C1262      H1264   1.086       .  S
C1265      C1266   1.401       .  A
C1265      C1270   1.392       .  A
C1265      H1271   1.084       .  S
C1266      C1267   1.401       .  A
C1267      C1268   1.394       .  A
C1267      H1272   1.084       .  S
C1268      C1269   1.400       .  A
C1268      H1273   1.084       .  S
C1269      C1270   1.399       .  A
C1270      H1274   1.084       .  S
C1275      C1276   1.401       .  A
C1275      C1280   1.394       .  A
C1275      H1281   1.084       .  S
C1276      C1277   1.400       .  A
C1277      C1278   1.394       .  A
C1277      H1282   1.084       .  S
C1278      C1279   1.401       .  A
C1278      H1283   1.084       .  S
C1279      C1280   1.401       .  A
C1280      H1284   1.084       .  S
C1285      C1286   1.402       .  A
C1285      C1290   1.393       .  A
C1285      H1291   1.084       .  S
C1286      C1287   1.402       .  A
C1287      C1288   1.394       .  A
C1287      H1292   1.084       .  S
C1288      C1289   1.398       .  A
C1288      H1293   1.084       .  S
C1289      C1290   1.399       .  A
C1290      H1294   1.084       .  S
C1295      C1300   1.395       .  A
C1295      H1301   1.084       .  S
C1296      C1297   1.399       .  A
C1297      C1298   1.393       .  A
C1297      H1302   1.084       .  S
C1298      C1299   1.400       .  A
C1298      H1303   1.084       .  S
C1300      H1304   1.084       .  S
C1305      C1306   1.345       .  D
C1305      H1307   1.087       .  S
C1306      H1308   1.087       .  S
C1309      C1310   1.338       .  D
C1310      H1312   1.085       .  S
C1313      C1314   1.349       .  D
C1313      H1315   1.087       .  S
C1314      H1316   1.087       .  S
C1317      C1318   1.350       .  D
C1317      H1319   1.086       .  S
C1318      H1320   1.087       .  S
C1321      C1322   1.345       .  D
C1321      H1323   1.087       .  S
C1322      H2892   1.084       .  S
H1324      C2890   1.084       .  S
C1325      C1326   1.342       .  D
C1325      H1327   1.087       .  S
C1329      C1330   1.341       .  D
C1329      H1331   1.087       .  S
C1333      C1334   1.336       .  D
C1333      H1335   1.086       .  S
C1334      H2120   1.087   1_545  S
H1336      C2118   1.087   1_655  S
C1337      C1338   1.343       .  D
C1337      H1339   1.086       .  S
C1338      H1340   1.087       .  S
C1341      C1342   1.352       .  D
C1341      H1343   1.086       .  S
C1342      H1344   1.086       .  S
C1345      C1346   1.348       .  D
C1345      H1347   1.086       .  S
C1346      H1348   1.086       .  S
C1349      C1350   1.352   1_565  D
C1350      H1352   1.086       .  S
C1353      C1354   1.349       .  D
C1353      H1355   1.086       .  S
C1354      H2924   1.087       .  S
H1356      C2922   1.087       .  S
C1357      C1358   1.346       .  D
C1357      H2927   1.087       .  S
C1358      H1360   1.086       .  S
H1359      C2925   1.087   1_455  S
C1361      C1362   1.348       .  D
C1361      H1363   1.086       .  S
C1362      H2932   1.086       .  S
H1364      C2930   1.086   1_455  S
C1365      C1366   1.350       .  D
C1365      H1367   1.086       .  S
C1366      H2152   1.086       .  S
H1368      C2150   1.087       .  S
C1369      C1370   1.404       .  A
C1369      C1374   1.399       .  A
C1369      H1375   1.083       .  S
C1370      C1371   1.408       .  A
C1371      C1372   1.399       .  A
C1371      H1376   1.083       .  S
C1372      C1373   1.404       .  A
C1372      H1377   1.083       .  S
C1373      C1374   1.408       .  A
C1374      H1378   1.083       .  S
C1379      C1380   1.401       .  A
C1379      C1384   1.396       .  A
C1379      H1385   1.084       .  S
C1380      C1381   1.400       .  A
C1381      C1382   1.394       .  A
C1381      H1386   1.084       .  S
C1382      C1383   1.402       .  A
C1382      H1387   1.084       .  S
C1383      C1384   1.401       .  A
C1384      H1388   1.084       .  S
C1389      C1390   1.401       .  A
C1389      C1394   1.392       .  A
C1389      H1395   1.084       .  S
C1390      C1391   1.400       .  A
C1391      C1392   1.391       .  A
C1391      H1396   1.084       .  S
C1392      C1393   1.399       .  A
C1392      H1397   1.084       .  S
C1393      C1394   1.399       .  A
C1394      H1398   1.084       .  S
C1399      C1400   1.402   1_565  A
C1399      C1404   1.401       .  A
C1399      H1405   1.083       .  S
C1401      C1402   1.397       .  A
C1401      H1406   1.084       .  S
C1402      H1407   1.083       .  S
C1403      C1404   1.407   1_545  A
C1404      H1408   1.083       .  S
C1409      C2978   1.401       .  A
C1409      C1414   1.399       .  A
C1409      H1415   1.083       .  S
C1410      C2977   1.402       .  A
C1410      C1411   1.404       .  A
C1411      C1412   1.398       .  A
C1411      H1416   1.084       .  S
C1412      C1413   1.403       .  A
C1412      H1417   1.083       .  S
C1413      C2982   1.406       .  A
C1414      C2981   1.406       .  A
C1414      H1418   1.083       .  S
C1419      C2988   1.400       .  A
C1419      C1424   1.393       .  A
C1419      H1425   1.084       .  S
C1420      C2987   1.400       .  A
C1420      C1421   1.400       .  A
C1421      C1422   1.396       .  A
C1421      H1426   1.084       .  S
C1422      C1423   1.403       .  A
C1422      H1427   1.084       .  S
C1423      C2992   1.401       .  A
C1424      C2991   1.401       .  A
C1424      H1428   1.084       .  S
C1429      C2998   1.400       .  A
C1429      C1434   1.393       .  A
C1429      H1435   1.084       .  S
C1430      C2997   1.399       .  A
C1430      C1431   1.399       .  A
C1431      C1432   1.390       .  A
C1431      H1436   1.084       .  S
C1432      C1433   1.400       .  A
C1432      H1437   1.084       .  S
C1433      C3002   1.400       .  A
C1434      C3001   1.399       .  A
C1434      H1438   1.084       .  S
C1439      C3008   1.406   1_465  A
C1439      C1444   1.401       .  A
C1439      H1445   1.083       .  S
C1440      C3007   1.406   1_545  A
C1441      C1442   1.399       .  A
C1441      H1446   1.083       .  S
C1442      H1447   1.083       .  S
C1443      C3012   1.407   1_545  A
C1444      C3011   1.407   1_565  A
C1444      H1448   1.083       .  S
C1449      C1450   1.402       .  A
C1449      C1454   1.394       .  A
C1449      H1455   1.084       .  S
C1450      C1451   1.400       .  A
C1451      C1452   1.394       .  A
C1451      H1456   1.084       .  S
C1452      C1453   1.401       .  A
C1452      H1457   1.084       .  S
C1453      C1454   1.399       .  A
C1454      H1458   1.084       .  S
C1459      C1460   1.399       .  A
C1459      C1464   1.393       .  A
C1459      H1465   1.084       .  S
C1460      C1461   1.400       .  A
C1461      C1462   1.393       .  A
C1461      H1466   1.084       .  S
C1462      C1463   1.401       .  A
C1462      H1467   1.084       .  S
C1463      C1464   1.401       .  A
C1464      H1468   1.084       .  S
C1469      C1474   1.394       .  A
C1469      H1475   1.084       .  S
C1470      C1471   1.401       .  A
C1471      C1472   1.394       .  A
C1471      H1476   1.084       .  S
C1472      C1473   1.399       .  A
C1472      H1477   1.084       .  S
C1474      H1478   1.084       .  S
C1479      C1484   1.395       .  A
C1479      H1485   1.084       .  S
C1480      C1481   1.402       .  A
C1481      C1482   1.394       .  A
C1481      H1486   1.084       .  S
C1482      C1483   1.399       .  A
C1482      H1487   1.084       .  S
C1484      H1488   1.083       .  S
C1489      C1490   1.403       .  A
C1489      C1494   1.398       .  A
C1489      H1495   1.084       .  S
C1490      C1491   1.404       .  A
C1491      C1492   1.402       .  A
C1491      H1496   1.083       .  S
C1492      C1493   1.404       .  A
C1492      H1497   1.083       .  S
C1493      C1494   1.404       .  A
C1494      H1498   1.083       .  S
C1499      C1500   1.399       .  A
C1499      C1504   1.394       .  A
C1499      H1505   1.084       .  S
C1500      C1501   1.401       .  A
C1501      C1502   1.394       .  A
C1501      H1506   1.084       .  S
C1502      C1503   1.400       .  A
C1502      H1507   1.084       .  S
C1503      C1504   1.402       .  A
C1504      H1508   1.084       .  S
C1509      C1510   1.401       .  A
C1509      C1514   1.390       .  A
C1509      H1515   1.084       .  S
C1510      C1511   1.400       .  A
C1511      C1512   1.394       .  A
C1511      H1516   1.084       .  S
C1512      C1513   1.400       .  A
C1512      H1517   1.084       .  S
C1513      C1514   1.398       .  A
C1514      H1518   1.084       .  S
C1519      C1524   1.400       .  A
C1519      H1525   1.083       .  S
C1520      C1521   1.406   1_545  A
C1521      C1522   1.401       .  A
C1521      H1526   1.083       .  S
C1522      C1523   1.407   1_565  A
C1522      H1527   1.083       .  S
C1524      H1528   1.083       .  S
C1529      C3098   1.405       .  A
C1529      C1534   1.403       .  A
C1529      H1535   1.083       .  S
C1530      C3097   1.403       .  A
C1530      C1531   1.404       .  A
C1531      C1532   1.401       .  A
C1531      H1536   1.084       .  S
C1532      C1533   1.406       .  A
C1532      H1537   1.083       .  S
C1533      C3102   1.406       .  A
C1534      C3101   1.406       .  A
C1534      H1538   1.083       .  S
C1539      C3108   1.399       .  A
C1539      C1544   1.394       .  A
C1539      H1545   1.084       .  S
C1540      C2365   1.455       .  S
C1540      C3107   1.401       .  A
C1540      C1541   1.400       .  A
C1541      C1542   1.394       .  A
C1541      H1546   1.083       .  S
C1542      C1543   1.401       .  A
C1542      H1547   1.084       .  S
C1543      C3112   1.400       .  A
C1544      C3111   1.402       .  A
C1544      H1548   1.084       .  S
C1549      C3118   1.400       .  A
C1549      C1554   1.393       .  A
C1549      H1555   1.084       .  S
C1550      C3117   1.399       .  A
C1550      C1551   1.399       .  A
C1551      C1552   1.391       .  A
C1551      H1556   1.084       .  S
C1552      C1553   1.399       .  A
C1552      H1557   1.084       .  S
C1553      C3122   1.400       .  A
C1554      C3121   1.400       .  A
C1554      H1558   1.084       .  S
C1559      C1564   1.401       .  A
C1559      H1565   1.083       .  S
C1560      C3129   1.409       .  A
C1561      C3128   1.408       .  A
C1561      C1562   1.398       .  A
C1561      H1566   1.083       .  S
C1562      C2347   1.404       .  A
C1562      H1567   1.083       .  S
C1563      C2419   1.485       .  S
C1563      C2346   1.406   1_455  A
C1563      C1564   1.407   1_545  A
C1564      H1568   1.083       .  S
O1569     Cu1577   2.030       .  S
O1570     Cu2361   2.017       .  S
O1570      C1580   1.280   1_565  A
O1571     Cu1577   1.982       .  S
O1571      C1581   1.276       .  A
O1572     Cu2361   1.992   1_545  S
O1573     Cu1578   1.980       .  S
O1573      C1582   1.277   1_655  A
O1574     Cu2362   2.012       .  S
O1575     Cu1578   2.013       .  S
O1576     Cu2362   1.994       .  S
O1576      C1579   1.275       .  A
Cu1577     O2354   2.026       .  S
Cu1577     O2356   1.978       .  S
Cu1578     O2358   1.994   1_545  S
Cu1578     O2360   2.013       .  S
C1579      C1972   1.468       .  S
C1580      C2344   1.484       .  S
C1582      C2334   1.449       .  S
O1583     Cu1591   1.998       .  S
O1583      C1593   1.279   1_655  A
O1584     Cu1591   2.005       .  S
O1584      C1594   1.274       .  A
O1585     Cu1591   2.025       .  S
O1585      C1595   1.278       .  A
O1586     Cu1591   2.023       .  S
O1587     Cu1592   2.022       .  S
O1587      C1596   1.280       .  A
O1588     Cu1592   2.019       .  S
O1589     Cu1592   1.987       .  S
O1590     Cu1592   1.980       .  S
C1593      C2337   1.449       .  S
C1594      C2327   1.456       .  S
C1595      C1987   1.473       .  S
C1596      C2314   1.480       .  S
O1597     Cu1605   1.997       .  S
O1597      C1607   1.278       .  A
O1598     Cu2389   1.995   1_545  S
O1598      C1608   1.272       .  A
O1599     Cu1605   2.019       .  S
O1599      C1609   1.278       .  A
O1600     Cu1605   2.019       .  S
O1600      C1610   1.280       .  A
O1601     Cu1606   2.008       .  S
O1601      C1610   1.278       .  A
O1602     Cu1606   2.005       .  S
O1602      C1609   1.277       .  A
O1603     Cu2390   1.986       .  S
O1603      C1608   1.278       .  A
O1604     Cu1606   1.999       .  S
O1604      C1607   1.273       .  A
Cu1605     O2382   1.995       .  S
Cu1605    Cu1606   2.378       .  S
Cu1606     O2387   1.986       .  S
C1607      C2284   1.455       .  S
C1608      C2294   1.451       .  S
C1609      C1999   1.466       .  S
C1610      C2304   1.484       .  S
O1611     Cu1619   1.980       .  S
O1611      C1621   1.270       .  A
O1612     Cu1619   1.983       .  S
O1612      C1622   1.276       .  A
O1613     Cu1619   2.028       .  S
O1613      C1623   1.281       .  A
O1614     Cu1619   2.026       .  S
O1614      C1624   1.280       .  A
O1615     Cu1620   1.999       .  S
O1615      C1624   1.276       .  A
O1616     Cu1620   2.004       .  S
O1616      C1623   1.275       .  A
O1617     Cu1620   2.005       .  S
O1617      C1622   1.274       .  A
O1618     Cu1620   2.007       .  S
O1618      C1621   1.281       .  A
Cu1619    Cu1620   2.380       .  S
C1621      C2297   1.451       .  S
C1622      C2287   1.454       .  S
C1623      C2013   1.470       .  S
C1624      C2274   1.475       .  S
O1625     Cu1633   2.018       .  S
O1625      C2419   1.280   1_655  A
O1626     Cu1633   2.022       .  S
O1626      C2420   1.277   1_655  A
O1627      C2421   1.274       .  A
O1628     Cu1633   2.003       .  S
O1628      C2422   1.279   1_545  A
O1629     Cu1634   1.981   1_655  S
O1629      C1638   1.271       .  A
O1630      C1637   1.275       .  A
O1631     Cu1634   2.002       .  S
O1631      C1636   1.278       .  A
O1632     Cu1634   2.008       .  S
O1632      C1635   1.278       .  A
Cu1633    Cu2418   2.379   1_645  S
Cu1634    Cu2417   2.378   1_455  S
C1635      O2409   1.282   1_455  A
C1636      O2410   1.279   1_455  A
C1636      C1916   1.471       .  S
C1637      O2411   1.275       .  A
C1637      C2264   1.451       .  S
C1638      O2412   1.280       .  A
C1638      C2257   1.455       .  S
O1639     Cu1647   2.014       .  S
O1639      C1649   1.278       .  A
O1640     Cu1647   2.013       .  S
O1640      C1650   1.278       .  A
O1641     Cu1647   1.997       .  S
O1641      C1651   1.273       .  A
O1642      C1652   1.278       .  A
O1643      C1652   1.273       .  A
O1644     Cu1648   1.994       .  S
O1644      C1651   1.278       .  A
O1645     Cu1648   2.023       .  S
O1645      C1650   1.279       .  A
O1646     Cu1648   2.023       .  S
O1646      C1649   1.279       .  A
Cu1647    Cu1648   2.378       .  S
C1649      C2317   1.478       .  S
C1650      C1929   1.471       .  S
C1651      C2244   1.454       .  S
C1652      C2234   1.452       .  S
O1653     Cu1661   2.010       .  S
O1653      C1663   1.278       .  A
O1654     Cu1661   2.010       .  S
O1654      C1664   1.275       .  A
O1655     Cu1661   2.019       .  S
O1655      C1665   1.282       .  A
O1656     Cu1661   2.017       .  S
O1656      C1666   1.276       .  A
O1657     Cu1662   1.975       .  S
O1657      C2450   1.276   1_545  A
O1658     Cu1662   1.984       .  S
O1658      C2449   1.270       .  A
O1659     Cu1662   2.011       .  S
O1659      C2448   1.279       .  A
O1660     Cu1662   2.011       .  S
O1660      C2447   1.279       .  A
Cu1661    Cu2446   2.378       .  S
Cu1662    Cu2445   2.378   1_545  S
C1663      O2444   1.280       .  A
C1663      C2307   1.483       .  S
C1664      O2443   1.280       .  A
C1664      C1943   1.465       .  S
C1665      O2442   1.269       .  A
C1665      C2267   1.453       .  S
C1666      O2441   1.273       .  A
C1666      C2254   1.452       .  S
O1667     Cu1675   2.028       .  S
O1667      C1677   1.281       .  A
O1668     Cu1675   2.029       .  S
O1668      C1678   1.280       .  A
O1669     Cu1675   1.979       .  S
O1669      C1679   1.276       .  A
O1670     Cu1675   1.991       .  S
O1670      C1680   1.271       .  A
O1671     Cu1676   1.994       .  S
O1671      C1680   1.278       .  A
O1672     Cu1676   2.006       .  S
O1672      C1679   1.274       .  A
O1673     Cu1676   1.994       .  S
O1673      C1678   1.276       .  A
O1674     Cu1676   1.995       .  S
O1674      C1677   1.276       .  A
Cu1675    Cu1676   2.378       .  S
C1677      C2277   1.473       .  S
C1678      C1957   1.465       .  S
C1679      C2247   1.453       .  S
C1680      C2237   1.452       .  S
O1681     Cu1689   2.012       .  S
O1681      C1691   1.276       .  A
O1682     Cu1689   2.016       .  S
O1682      C1692   1.279       .  A
O1683     Cu1689   2.009       .  S
O1683      C1693   1.275       .  A
O1684     Cu2473   2.005   1_455  S
O1684      C1694   1.281       .  A
O1685     Cu2474   1.980   1_545  S
O1686     Cu1690   1.980       .  S
O1687     Cu1690   2.020       .  S
O1688     Cu1690   2.011       .  S
Cu1689     O2468   1.995       .  S
Cu1690     O2469   1.979       .  S
C1691      C1748   1.466       .  S
C1692      C2224   1.485       .  S
C1693      C2207   1.455       .  S
C1694      C2214   1.451       .  S
O1695     Cu1703   2.003       .  S
O1696     Cu1703   1.999       .  S
O1697     Cu1703   2.023       .  S
O1698     Cu1703   2.018       .  S
O1699     Cu1704   2.016       .  S
O1699      C1708   1.279   1_655  A
O1700     Cu1704   2.005       .  S
O1700      C1707   1.278       .  A
O1701     Cu1704   1.998       .  S
O1701      C1706   1.273       .  A
O1702     Cu1704   1.981   1_455  S
O1702      C1705   1.277       .  A
C1705      C2217   1.452       .  S
C1706      C2204   1.455       .  S
C1707      C1762   1.465       .  S
C1708      C2194   1.478       .  S
O1709     Cu1717   1.982       .  S
O1709      C1719   1.276       .  A
O1710     Cu2501   1.996   1_545  S
O1710      C1720   1.273       .  A
O1711     Cu1717   2.022       .  S
O1711      C1721   1.279       .  A
O1712     Cu1717   2.018       .  S
O1712      C1722   1.279       .  A
O1713     Cu1718   2.002       .  S
O1713      C1722   1.277       .  A
O1714     Cu1718   2.001       .  S
O1714      C1721   1.277       .  A
O1715     Cu2502   1.986       .  S
O1715      C1720   1.278       .  A
O1716     Cu1718   2.003       .  S
O1716      C1719   1.274       .  A
Cu1717     O2494   1.989       .  S
Cu1717    Cu1718   2.379       .  S
Cu1718     O2499   1.983       .  S
C1719      C2164   1.452       .  S
C1720      C2174   1.452       .  S
C1721      C1775   1.467       .  S
C1722      C2184   1.471       .  S
O1723     Cu1731   1.995       .  S
O1723      C1733   1.272       .  A
O1724     Cu1731   1.993       .  S
O1724      C1734   1.278       .  A
O1725     Cu1731   2.022       .  S
O1725      C1735   1.280       .  A
O1726     Cu1731   2.019       .  S
O1726      C1736   1.280       .  A
O1727     Cu1732   2.006       .  S
O1727      C1736   1.278       .  A
O1728     Cu1732   2.003       .  S
O1728      C1735   1.275       .  A
O1729     Cu1732   1.995       .  S
O1729      C1734   1.273       .  A
O1730     Cu1732   1.989       .  S
O1730      C1733   1.278       .  A
Cu1731    Cu1732   2.378       .  S
C1733      C2177   1.452       .  S
C1734      C2167   1.453       .  S
C1735      C1790   1.465       .  S
C1736      C2154   1.483       .  S
O1737     Cu1745   1.991       .  S
O1738     Cu1745   1.987       .  S
O1739     Cu2529   2.054       .  S
O1740     Cu1745   2.059       .  S
O1741     Cu1746   2.008       .  S
O1741      C1750   1.275       .  A
O1742     Cu2530   2.012       .  S
O1742      C1749   1.276       .  A
O1743     Cu1746   2.033       .  S
O1743      C1748   1.281       .  A
O1744     Cu1746   2.035       .  S
O1744      C1747   1.283       .  A
Cu1745     O2523   2.070       .  S
Cu1746     O2526   2.013       .  S
C1747      C2149   1.476       .  S
C1749      C2145   1.491       .  S
C1750      C2142   1.493       .  S
O1751     Cu1759   2.038       .  S
O1752     Cu1759   2.034       .  S
O1753     Cu1759   2.010       .  S
O1754     Cu1759   2.014       .  S
O1755     Cu1760   2.051       .  S
O1755      C1764   1.284       .  A
O1756     Cu1760   2.061       .  S
O1756      C1763   1.286       .  A
O1757     Cu1760   1.990       .  S
O1757      C1762   1.274       .  A
O1758     Cu1760   1.991       .  S
O1758      C1761   1.273       .  A
C1761      C2137   1.478       .  S
C1763      C2141   1.493       .  S
C1764      C2146   1.491       .  S
O1765     Cu1773   2.026       .  S
O1765      C1775   1.280       .  A
O1766     Cu1773   2.029       .  S
O1766      C1776   1.281       .  A
O1767     Cu1773   2.015       .  S
O1767      C1777   1.277       .  A
O1768     Cu2557   2.021   1_545  S
O1768      C1778   1.277       .  A
O1769     Cu2558   2.048       .  S
O1769      C1778   1.284       .  A
O1770     Cu1774   2.041       .  S
O1770      C1777   1.283       .  A
O1771     Cu1774   2.001       .  S
O1771      C1776   1.276       .  A
O1772     Cu1774   1.996       .  S
O1772      C1775   1.275       .  A
Cu1773     O2552   2.023       .  S
Cu1773    Cu1774   2.371       .  S
Cu1774     O2553   2.042       .  S
C1776      C2133   1.481       .  S
C1777      C2125   1.489       .  S
C1778      C2129   1.494       .  S
O1779     Cu1787   2.007       .  S
O1779      C1789   1.275       .  A
O1780     Cu1787   2.004       .  S
O1780      C1790   1.275       .  A
O1781     Cu1787   2.043       .  S
O1781      C1791   1.283       .  A
O1782     Cu1787   2.060       .  S
O1782      C1792   1.285       .  A
O1783     Cu1788   2.007       .  S
O1783      C1792   1.276       .  A
O1784     Cu1788   2.015       .  S
O1784      C1791   1.277       .  A
O1785     Cu1788   2.021       .  S
O1785      C1790   1.279       .  A
O1786     Cu1788   2.024       .  S
O1786      C1789   1.281       .  A
Cu1787    Cu1788   2.371       .  S
C1789      C2121   1.481       .  S
C1791      C2126   1.490       .  S
C1792      C2130   1.492       .  S
O1793     Cu1801   2.020       .  S
O1793      C1803   1.278       .  A
O1794      C1804   1.276       .  A
O1795     Cu1801   2.035   1_455  S
O1795      C1805   1.281       .  A
O1796     Cu1801   2.038       .  S
O1796      C1806   1.284   1_655  A
O1797     Cu1802   1.987       .  S
O1797      C2590   1.271       .  A
O1798     Cu1802   1.981       .  S
O1798      C2589   1.272       .  A
O1799      C2588   1.287       .  A
O1800     Cu1802   2.062   1_655  S
O1800      C2587   1.287       .  A
Cu1801    Cu2586   2.371   1_655  S
Cu1802    Cu2585   2.371       .  S
C1803      O2584   1.283       .  A
C1803      C2109   1.491       .  S
C1804      O2583   1.284       .  A
C1804      C2113   1.488       .  S
C1805      O2582   1.275       .  A
C1805      C1860   1.469       .  S
C1806      O2581   1.274       .  A
C1806      C2117   1.484       .  S
O1807     Cu1815   1.999   1_655  S
O1807      C1817   1.276   1_655  A
O1808     Cu1815   2.000       .  S
O1808      C1818   1.276       .  A
O1809      C1819   1.282       .  A
O1810     Cu1815   2.035   1_655  S
O1810      C1820   1.281       .  A
O1811     Cu1816   2.027   1_655  S
O1811      C1820   1.279       .  A
O1812      C1819   1.279       .  A
O1813     Cu1816   2.035       .  S
O1813      C1818   1.281       .  A
O1814     Cu1816   2.042       .  S
O1814      C1817   1.282       .  A
Cu1815    Cu1816   2.371       .  S
C1817      C2105   1.481       .  S
C1818      C1874   1.472       .  S
C1819      C2101   1.490       .  S
C1820      C2097   1.492       .  S
O1821     Cu1829   2.057       .  S
O1821      C2615   1.284       .  A
O1822     Cu1829   2.060       .  S
O1822      C2616   1.286       .  A
O1823     Cu1829   1.997       .  S
O1823      C2617   1.273       .  A
O1824     Cu1829   1.992       .  S
O1824      C2618   1.272       .  A
O1825     Cu1830   2.050       .  S
O1825      C1834   1.284       .  A
O1826     Cu1830   2.045       .  S
O1826      C1833   1.284       .  A
O1827     Cu1830   1.969       .  S
O1827      C1832   1.269       .  A
O1828     Cu1830   1.970       .  S
O1828      C1831   1.271       .  A
Cu1829    Cu2614   2.370       .  S
Cu1830    Cu2613   2.371       .  S
C1831      O2605   1.283       .  A
C1831      C1888   1.467       .  S
C1832      O2606   1.286       .  A
C1832      C2093   1.475       .  S
C1833      O2607   1.276       .  A
C1833      C2114   1.489       .  S
C1834      O2608   1.277       .  A
C1834      C2110   1.492       .  S
O1835     Cu1843   2.044       .  S
O1835      C1845   1.282       .  A
O1836     Cu1843   2.031       .  S
O1836      C1846   1.280       .  A
O1837     Cu1843   2.015       .  S
O1837      C1847   1.277       .  A
O1838     Cu1843   2.015       .  S
O1838      C1848   1.277       .  A
O1839     Cu1844   2.013       .  S
O1839      C1848   1.278       .  A
O1840     Cu1844   2.011       .  S
O1840      C1847   1.279       .  A
O1841     Cu1844   2.029       .  S
O1841      C1846   1.279       .  A
O1842     Cu1844   2.017       .  S
O1842      C1845   1.278       .  A
Cu1843    Cu1844   2.371       .  S
C1845      C2098   1.490       .  S
C1846      C2102   1.489       .  S
C1847      C2089   1.480       .  S
C1848      C1903   1.467       .  S
O1849     Cu1857   2.012       .  S
O1849      C2643   1.279   1_655  A
O1850     Cu1857   2.005   1_455  S
O1850      C2644   1.279       .  A
O1851     Cu1857   1.969       .  S
O1851      C2645   1.275   1_545  A
O1852      C2646   1.270       .  A
O1853      C1862   1.279       .  A
O1854     Cu1858   1.996   1_655  S
O1854      C1861   1.273       .  A
O1855     Cu1858   2.027       .  S
O1855      C1860   1.279       .  A
O1856     Cu1858   2.020       .  S
O1856      C1859   1.280   1_455  A
Cu1857    Cu2642   2.379   1_645  S
Cu1858    Cu2641   2.377   1_455  S
C1859      O2633   1.279       .  A
C1859      C2227   1.486       .  S
C1860      O2634   1.278   1_455  A
C1861      O2635   1.276       .  A
C1861      C2070   1.448       .  S
C1862      O2636   1.271       .  A
C1862      C2080   1.453       .  S
O1863     Cu1871   2.005       .  S
O1863      C1873   1.277   1_655  A
O1864     Cu1871   2.007       .  S
O1864      C1874   1.278   1_655  A
O1865     Cu1871   1.989       .  S
O1865      C1875   1.278       .  A
O1866      C1876   1.272       .  A
O1867      C1876   1.278       .  A
O1868     Cu1872   1.988   1_655  S
O1868      C1875   1.271       .  A
O1869     Cu1872   2.028       .  S
O1869      C1874   1.280       .  A
O1870     Cu1872   2.026       .  S
O1870      C1873   1.280       .  A
Cu1871    Cu1872   2.381   1_655  S
C1873      C2197   1.475       .  S
C1875      C2050   1.449       .  S
C1876      C2060   1.452       .  S
O1877     Cu1885   2.004       .  S
O1877      C1887   1.277       .  A
O1878     Cu1885   1.999       .  S
O1878      C1888   1.279       .  A
O1879     Cu1885   1.976       .  S
O1879      C1889   1.269       .  A
O1880     Cu1885   1.976       .  S
O1880      C1890   1.276       .  A
O1881     Cu1886   1.999       .  S
O1881      C2674   1.271       .  A
O1882     Cu1886   2.008       .  S
O1882      C2673   1.280   1_545  A
O1883     Cu1886   2.027       .  S
O1883      C2672   1.277       .  A
O1884     Cu1886   2.018       .  S
O1884      C2671   1.279       .  A
Cu1885    Cu2670   2.381       .  S
Cu1886    Cu2669   2.379       .  S
C1887      O2668   1.279       .  A
C1887      C2187   1.473       .  S
C1888      O2667   1.277       .  A
C1889      O2666   1.280       .  A
C1889      C2073   1.449       .  S
C1890      O2665   1.273       .  A
C1890      C2083   1.452       .  S
O1891     Cu1899   1.997       .  S
O1891      C1901   1.273       .  A
O1892     Cu1899   1.996       .  S
O1892      C1902   1.278       .  A
O1893     Cu1899   2.009       .  S
O1893      C1903   1.277       .  A
O1894     Cu1899   2.015       .  S
O1894      C1904   1.279       .  A
O1895     Cu1900   2.009       .  S
O1895      C1904   1.279       .  A
O1896     Cu1900   2.019       .  S
O1896      C1903   1.278       .  A
O1897     Cu1900   1.985       .  S
O1897      C1902   1.268       .  A
O1898     Cu1900   1.984       .  S
O1898      C1901   1.277       .  A
Cu1899    Cu1900   2.377       .  S
C1901      C2063   1.451       .  S
C1902      C2053   1.450       .  S
C1904      C2157   1.484       .  S
O1905     Cu1913   2.055       .  S
O1905      C2699   1.286       .  A
O1906     Cu1913   2.053       .  S
O1906      C2700   1.284       .  A
O1907     Cu1913   1.995   1_655  S
O1907      C2701   1.273       .  A
O1908      C2702   1.276       .  A
O1909      C1918   1.287       .  A
O1910     Cu1914   2.065   1_655  S
O1910      C1917   1.287       .  A
O1911     Cu1914   1.977       .  S
O1911      C1916   1.271       .  A
O1912     Cu1914   1.975       .  S
O1912      C1915   1.270       .  A
Cu1913    Cu2698   2.371       .  S
Cu1914    Cu2697   2.370       .  S
C1915      O2689   1.286       .  A
C1915      C2118   1.480   1_556  S
C1916      O2690   1.284       .  A
C1917      O2691   1.272       .  A
C1917      C2041   1.488       .  S
C1918      O2692   1.274       .  A
C1918      C2045   1.493       .  S
O1919      C1929   1.276       .  A
O1920     Cu1927   2.007       .  S
O1920      C1930   1.278       .  A
O1921      C1931   1.284       .  A
O1922     Cu1927   2.044       .  S
O1922      C1932   1.282       .  A
O1923     Cu1928   2.034       .  S
O1923      C1932   1.280       .  A
O1924      C1931   1.278       .  A
O1925     Cu1928   2.033       .  S
O1925      C1930   1.280       .  A
O1926      C1929   1.280       .  A
Cu1927    Cu1928   2.369       .  S
C1930      C2106   1.487   1_656  S
C1931      C2037   1.494       .  S
C1932      C2033   1.497       .  S
O1933     Cu1941   1.994       .  S
O1933      C2727   1.274       .  A
O1934     Cu1941   2.000       .  S
O1934      C2728   1.273       .  A
O1935     Cu1941   2.050       .  S
O1935      C2729   1.285       .  A
O1936     Cu1941   2.056       .  S
O1936      C2730   1.285       .  A
O1937     Cu1942   1.997       .  S
O1937      C1946   1.273       .  A
O1938     Cu1942   1.999       .  S
O1938      C1945   1.273       .  A
O1939     Cu1942   2.041       .  S
O1939      C1944   1.285       .  A
O1940     Cu1942   2.039       .  S
O1940      C1943   1.282       .  A
Cu1941    Cu2726   2.371       .  S
Cu1942    Cu2725   2.371       .  S
C1943      O2717   1.272       .  A
C1944      O2718   1.271       .  A
C1944      C2094   1.479   1_556  S
C1945      O2719   1.286       .  A
C1945      C2042   1.489       .  S
C1946      O2720   1.287       .  A
C1946      C2046   1.493       .  S
O1947     Cu1955   1.993       .  S
O1947      C1957   1.275       .  A
O1948     Cu1955   1.994       .  S
O1948      C1958   1.275       .  A
O1949     Cu1955   2.025       .  S
O1949      C1959   1.279       .  A
O1950     Cu1955   2.032       .  S
O1950      C1960   1.280       .  A
O1951     Cu1956   2.042       .  S
O1951      C1960   1.282       .  A
O1952     Cu1956   2.052       .  S
O1952      C1959   1.283       .  A
O1953     Cu1956   2.033       .  S
O1953      C1958   1.281       .  A
O1954     Cu1956   2.028       .  S
O1954      C1957   1.279       .  A
Cu1955    Cu1956   2.371       .  S
C1958      C2090   1.477   1_556  S
C1959      C2034   1.495       .  S
C1960      C2038   1.496       .  S
O1961     Cu1969   2.033       .  S
O1962     Cu1969   2.034       .  S
O1963     Cu1969   2.001       .  S
O1964     Cu2753   2.044       .  S
O1965     Cu2754   2.031   1_545  S
O1965      C1974   1.281       .  A
O1966     Cu1970   2.049       .  S
O1966      C1973   1.284       .  A
O1967     Cu1970   1.998       .  S
O1967      C1972   1.275       .  A
O1968     Cu1970   1.997       .  S
O1968      C1971   1.274       .  A
Cu1969     O2748   2.014       .  S
Cu1970     O2749   2.043       .  S
C1971      C2150   1.478       .  S
C1973      C2025   1.487       .  S
C1974      C2029   1.492       .  S
O1975     Cu1983   2.011       .  S
O1975      C1985   1.276       .  A
O1976     Cu1983   2.015       .  S
O1976      C1986   1.277       .  A
O1977     Cu1983   2.041       .  S
O1977      C1987   1.282       .  A
O1978     Cu1983   2.038       .  S
O1978      C1988   1.283       .  A
O1979     Cu1984   1.994       .  S
O1980     Cu1984   1.996       .  S
O1981     Cu1984   2.056       .  S
O1982     Cu1984   2.044       .  S
C1985      C2026   1.488       .  S
C1986      C2030   1.496   1_655  S
C1988      C2138   1.479   1_655  S
O1989     Cu1997   1.997       .  S
O1989      C1999   1.275       .  A
O1990     Cu1997   2.003       .  S
O1990      C2000   1.276       .  A
O1991     Cu2781   2.053       .  S
O1991      C2001   1.284       .  A
O1992     Cu1997   2.062       .  S
O1992      C2002   1.286       .  A
O1993     Cu1998   1.999       .  S
O1993      C2002   1.274       .  A
O1994     Cu2782   2.020       .  S
O1994      C2001   1.277       .  A
O1995     Cu1998   2.028       .  S
O1995      C2000   1.281       .  A
O1996     Cu1998   2.028       .  S
O1996      C1999   1.280       .  A
Cu1997     O2775   2.057       .  S
Cu1997    Cu1998   2.371       .  S
Cu1998     O2778   2.011       .  S
C2000      C2134   1.480       .  S
C2001      C2021   1.495       .  S
C2002      C2018   1.490       .  S
O2003     Cu2011   2.031       .  S
O2003      C2013   1.281       .  A
O2004     Cu2011   2.034       .  S
O2004      C2014   1.282       .  A
O2005     Cu2011   2.013       .  S
O2005      C2015   1.276       .  A
O2006     Cu2011   2.005       .  S
O2006      C2016   1.275       .  A
O2007     Cu2012   2.066       .  S
O2007      C2016   1.286       .  A
O2008     Cu2012   2.051       .  S
O2008      C2015   1.285       .  A
O2009     Cu2012   1.995       .  S
O2009      C2014   1.274       .  A
O2010     Cu2012   2.002       .  S
O2010      C2013   1.274       .  A
Cu2011    Cu2012   2.371       .  S
C2014      C2122   1.478       .  S
C2015      C2017   1.492       .  S
C2016      C2022   1.493       .  S
C2017      C2018   1.344       .  D
C2017      H2019   1.086       .  S
C2018      H2020   1.087       .  S
C2021      C2022   1.346       .  D
C2021      H2023   1.086       .  S
C2022      H2024   1.087       .  S
C2025      C2026   1.344       .  D
C2025      H2027   1.087   1_655  S
C2029      C2030   1.355   1_655  D
C2029      H2031   1.086       .  S
C2033      C2034   1.351       .  D
C2033      H2035   1.086       .  S
C2034      H2036   1.086       .  S
C2037      C2038   1.350       .  D
C2037      H2039   1.087       .  S
C2038      H2040   1.086       .  S
C2041      C2042   1.341       .  D
C2041      H2827   1.087       .  S
C2042      H2044   1.087       .  S
H2043      C2825   1.087       .  S
C2045      C2046   1.343       .  D
C2045      H2831   1.087       .  S
C2046      H2048   1.087       .  S
H2047      C2829   1.086       .  S
C2049      C2050   1.400       .  A
C2049      C2054   1.391       .  A
C2049      H2055   1.084       .  S
C2050      C2051   1.400       .  A
C2051      C2052   1.393       .  A
C2051      H2056   1.084       .  S
C2052      C2053   1.399       .  A
C2052      H2057   1.084       .  S
C2053      C2054   1.399       .  A
C2054      H2058   1.084       .  S
C2059      C2060   1.401       .  A
C2059      C2064   1.394       .  A
C2059      H2065   1.084       .  S
C2060      C2061   1.400       .  A
C2061      C2062   1.393       .  A
C2061      H2066   1.084       .  S
C2062      C2063   1.401       .  A
C2062      H2067   1.084       .  S
C2063      C2064   1.400       .  A
C2064      H2068   1.084       .  S
C2069      C2070   1.401       .  A
C2069      C2074   1.392       .  A
C2069      H2075   1.084       .  S
C2070      C2071   1.401       .  A
C2071      C2072   1.392       .  A
C2071      H2076   1.084       .  S
C2072      C2073   1.399       .  A
C2072      H2077   1.084       .  S
C2073      C2074   1.398       .  A
C2074      H2078   1.084       .  S
C2079      C2864   1.399       .  A
C2079      C2084   1.393       .  A
C2079      H2085   1.084       .  S
C2080      C2863   1.400       .  A
C2080      C2081   1.399       .  A
C2081      C2082   1.394       .  A
C2081      H2086   1.084       .  S
C2082      C2083   1.402       .  A
C2082      H2087   1.084       .  S
C2083      C2868   1.401       .  A
C2084      C2867   1.401       .  A
C2084      H2088   1.084       .  S
C2089      C2090   1.343       .  D
C2089      H2091   1.085       .  S
C2090      H2092   1.087       .  S
C2093      C2094   1.336       .  D
C2093      H2879   1.087       .  S
C2094      H2096   1.087       .  S
H2095      C2877   1.087       .  S
C2097      C2098   1.348       .  D
C2097      H2099   1.086       .  S
C2098      H2100   1.086       .  S
C2101      C2102   1.352       .  D
C2101      H2103   1.086       .  S
C2102      H2104   1.087       .  S
C2105      C2106   1.347       .  D
C2105      H2107   1.087   1_455  S
C2109      C2110   1.355       .  D
C2109      H2111   1.087       .  S
C2110      H2896   1.086       .  S
H2112      C2894   1.087       .  S
C2113      C2114   1.345       .  D
C2113      H2115   1.087       .  S
C2114      H2900   1.087       .  S
H2116      C2898   1.087       .  S
C2117      C2118   1.339       .  D
C2117      H2119   1.085       .  S
C2121      C2122   1.342       .  D
C2121      H2123   1.087       .  S
C2122      H2124   1.087       .  S
C2125      C2126   1.354       .  D
C2125      H2127   1.086       .  S
C2126      H2128   1.086       .  S
C2129      C2130   1.347       .  D
C2129      H2131   1.087       .  S
C2130      H2132   1.087       .  S
C2133      C2134   1.350       .  D
C2133      H2919   1.086       .  S
C2134      H2136   1.086       .  S
H2135      C2917   1.086       .  S
C2137      C2138   1.340   1_655  D
C2137      H2139   1.087       .  S
C2141      C2142   1.345       .  D
C2142      H2144   1.087       .  S
C2145      C2146   1.346       .  D
C2145      H2147   1.087       .  S
C2149      C2150   1.340       .  D
C2149      H2151   1.087   1_655  S
C2153      C2154   1.406       .  A
C2153      C2158   1.401       .  A
C2153      H2159   1.083       .  S
C2154      C2155   1.406       .  A
C2155      C2156   1.397       .  A
C2155      H2160   1.083       .  S
C2156      C2157   1.405       .  A
C2156      H2161   1.083       .  S
C2157      C2158   1.407       .  A
C2158      H2162   1.083       .  S
C2163      C2164   1.401       .  A
C2163      C2168   1.394       .  A
C2163      H2169   1.084       .  S
C2164      C2165   1.401       .  A
C2165      C2166   1.393       .  A
C2165      H2170   1.084       .  S
C2166      C2167   1.399       .  A
C2166      H2171   1.084       .  S
C2167      C2168   1.400       .  A
C2168      H2172   1.084       .  S
C2173      C2174   1.400       .  A
C2173      C2178   1.394       .  A
C2173      H2179   1.084       .  S
C2174      C2175   1.400       .  A
C2175      C2176   1.392       .  A
C2175      H2180   1.084       .  S
C2176      C2177   1.400       .  A
C2176      H2181   1.084       .  S
C2177      C2178   1.401       .  A
C2178      H2182   1.084       .  S
C2183      C2184   1.402       .  A
C2183      C2188   1.400       .  A
C2183      H2189   1.083       .  S
C2184      C2969   1.404       .  A
C2185      C2968   1.403       .  A
C2185      C2186   1.399       .  A
C2185      H2190   1.084       .  S
C2186      C2971   1.405       .  A
C2186      H2191   1.083       .  S
C2187      C2970   1.403       .  A
C2187      C2188   1.405       .  A
C2188      H2192   1.083       .  S
C2193      C2198   1.399       .  A
C2193      H2199   1.083       .  S
C2194      C2195   1.406       .  A
C2195      C2196   1.402       .  A
C2195      H2200   1.083   1_455  S
C2196      C2197   1.404       .  A
C2196      H2201   1.083   1_455  S
C2198      H2202   1.083       .  S
C2203      C2208   1.395       .  A
C2203      H2209   1.083       .  S
C2204      C2205   1.401       .  A
C2205      C2206   1.395       .  A
C2205      H2210   1.084       .  S
C2206      C2207   1.401       .  A
C2206      H2211   1.084       .  S
C2208      H2212   1.084       .  S
C2213      C2218   1.394       .  A
C2213      H2219   1.084       .  S
C2214      C2215   1.399       .  A
C2215      C2216   1.392       .  A
C2215      H2220   1.084       .  S
C2216      C2217   1.402       .  A
C2216      H2221   1.084       .  S
C2218      H2222   1.084       .  S
C2223      C2228   1.403       .  A
C2223      H2229   1.083       .  S
C2224      C3009   1.407       .  A
C2225      C3008   1.407       .  A
C2225      C2226   1.398       .  A
C2225      H2230   1.083       .  S
C2226      C3011   1.405   1_655  A
C2226      H2231   1.083       .  S
C2227      C3010   1.407       .  A
C2228      H2232   1.083       .  S
C2233      C2234   1.401       .  A
C2233      C2238   1.393       .  A
C2233      H2239   1.084       .  S
C2234      C2235   1.401       .  A
C2235      C2236   1.394       .  A
C2235      H2240   1.084       .  S
C2236      C2237   1.400       .  A
C2236      H2241   1.084       .  S
C2237      C2238   1.400       .  A
C2238      H2242   1.084       .  S
C2243      C2244   1.400       .  A
C2243      C2248   1.394       .  A
C2243      H2249   1.084       .  S
C2244      C2245   1.400       .  A
C2245      C2246   1.394       .  A
C2245      H2250   1.084       .  S
C2246      C2247   1.401       .  A
C2246      H2251   1.084       .  S
C2247      C2248   1.401       .  A
C2248      H2252   1.084       .  S
C2253      C3038   1.401       .  A
C2253      C2258   1.393       .  A
C2253      H2259   1.084       .  S
C2254      C3037   1.403       .  A
C2254      C2255   1.403       .  A
C2255      C2256   1.396       .  A
C2255      H2260   1.084       .  S
C2256      C2257   1.399       .  A
C2256      H2261   1.084       .  S
C2257      C3042   1.399       .  A
C2258      C3041   1.400       .  A
C2258      H2262   1.084       .  S
C2263      C3048   1.401       .  A
C2263      C2268   1.394       .  A
C2263      H2269   1.084       .  S
C2264      C3047   1.401       .  A
C2264      C2265   1.404       .  A
C2265      C2266   1.393       .  A
C2265      H2270   1.084       .  S
C2266      C2267   1.397       .  A
C2266      H2271   1.084       .  S
C2267      C3052   1.400       .  A
C2268      C3051   1.400       .  A
C2268      H2272   1.084       .  S
C2273      C2274   1.404       .  A
C2273      C2278   1.396       .  A
C2273      H2279   1.084       .  S
C2274      C2275   1.405       .  A
C2275      C2276   1.402       .  A
C2275      H2280   1.083       .  S
C2276      C2277   1.404       .  A
C2276      H2281   1.083       .  S
C2277      C2278   1.403       .  A
C2278      H2282   1.084       .  S
C2283      C2284   1.400       .  A
C2283      C2288   1.394       .  A
C2283      H2289   1.084       .  S
C2284      C2285   1.401       .  A
C2285      C2286   1.395       .  A
C2285      H2290   1.083       .  S
C2286      C2287   1.400       .  A
C2286      H2291   1.084       .  S
C2287      C2288   1.401       .  A
C2288      H2292   1.084       .  S
C2293      C2294   1.401       .  A
C2293      C2298   1.393       .  A
C2293      H2299   1.084       .  S
C2294      C2295   1.400       .  A
C2295      C2296   1.392       .  A
C2295      H2300   1.084       .  S
C2296      C2297   1.400       .  A
C2296      H2301   1.084       .  S
C2297      C2298   1.398       .  A
C2298      H2302   1.084       .  S
C2303      C3088   1.407       .  A
C2303      C2308   1.399       .  A
C2303      H2309   1.083       .  S
C2304      C3087   1.407       .  A
C2304      C2305   1.405       .  A
C2305      C2306   1.399       .  A
C2305      H2310   1.083       .  S
C2306      C2307   1.407       .  A
C2306      H2311   1.083       .  S
C2307      C3092   1.405       .  A
C2308      C3091   1.406       .  A
C2308      H2312   1.083       .  S
C2313      C2318   1.401       .  A
C2313      H2319   1.083       .  S
C2314      C2315   1.406       .  A
C2315      C2316   1.402       .  A
C2315      H2320   1.083       .  S
C2316      C2317   1.404       .  A
C2316      H2321   1.083       .  S
C2318      H2322   1.083       .  S
C2323      C2328   1.394       .  A
C2323      H2329   1.084       .  S
C2324      C2325   1.401       .  A
C2325      C2326   1.395       .  A
C2325      H2330   1.083       .  S
C2326      C2327   1.401       .  A
C2326      H2331   1.084       .  S
C2328      H2332   1.084       .  S
C2333      C2338   1.393       .  A
C2333      H2339   1.084       .  S
C2334      C2335   1.400       .  A
C2335      C2336   1.392       .  A
C2335      H2340   1.084       .  S
C2336      C2337   1.399       .  A
C2336      H2341   1.084       .  S
C2338      H2342   1.084       .  S
C2343      C3128   1.404       .  A
C2343      C2348   1.399       .  A
C2343      H2349   1.083       .  S
C2344      C3127   1.404   1_545  A
C2345      C2346   1.399       .  A
C2345      H2350   1.083       .  S
C2346      H2351   1.083       .  S
C2347      C2348   1.407       .  A
C2348      H2352   1.083       .  S
O2353     Cu2361   2.021       .  S
O2354      C2364   1.281       .  A
O2355     Cu2361   1.994       .  S
O2355      C2365   1.278       .  A
O2357     Cu2362   1.998   1_455  S
O2357      C2366   1.280       .  A
O2359     Cu2362   2.000       .  S
O2360      C2363   1.278   1_545  A
C2363      C2756   1.470       .  S
C2364      C3128   1.482       .  S
C2366      C3118   1.449       .  S
O2367     Cu2375   1.995   1_455  S
O2367      C2377   1.280       .  A
O2368     Cu2375   2.009       .  S
O2368      C2378   1.275       .  A
O2369     Cu2375   2.002       .  S
O2369      C2379   1.276       .  A
O2370     Cu2375   2.009       .  S
O2371     Cu2376   2.037       .  S
O2371      C2380   1.282       .  A
O2372     Cu2376   2.037       .  S
O2373     Cu2376   1.983       .  S
O2374     Cu2376   1.979       .  S
C2377      C3121   1.450       .  S
C2378      C3111   1.452       .  S
C2379      C2771   1.469       .  S
C2380      C3098   1.482       .  S
O2381     Cu2389   1.997       .  S
O2381      C2391   1.278       .  A
O2382      C2392   1.272       .  A
O2383     Cu2389   2.028       .  S
O2383      C2393   1.279   1_565  A
O2384     Cu2389   2.021       .  S
O2384      C2394   1.280   1_565  A
O2385     Cu2390   2.011       .  S
O2385      C2394   1.279       .  A
O2386     Cu2390   2.010       .  S
O2386      C2393   1.278       .  A
O2387      C2392   1.278       .  A
O2388     Cu2390   1.997   1_565  S
O2388      C2391   1.272       .  A
Cu2389    Cu2390   2.378   1_565  S
C2391      C3068   1.455       .  S
C2392      C3078   1.451       .  S
C2393      C2783   1.472       .  S
C2394      C3088   1.486       .  S
O2395     Cu2403   1.981       .  S
O2395      C2405   1.270       .  A
O2396     Cu2403   1.983       .  S
O2396      C2406   1.276       .  A
O2397     Cu2403   2.019       .  S
O2397      C2407   1.280       .  A
O2398     Cu2403   2.020       .  S
O2398      C2408   1.279       .  A
O2399     Cu2404   2.013       .  S
O2399      C2408   1.278       .  A
O2400     Cu2404   2.010       .  S
O2400      C2407   1.276       .  A
O2401     Cu2404   2.002       .  S
O2401      C2406   1.274       .  A
O2402     Cu2404   2.007       .  S
O2402      C2405   1.281       .  A
Cu2403    Cu2404   2.381       .  S
C2405      C3081   1.452       .  S
C2406      C3071   1.452       .  S
C2407      C2797   1.467       .  S
C2408      C3058   1.476       .  S
O2409     Cu2417   2.027       .  S
O2410     Cu2417   2.033       .  S
O2412     Cu2417   2.012       .  S
O2413     Cu2418   1.988   1_655  S
O2413      C2422   1.271       .  A
O2414      C2421   1.276       .  A
O2415     Cu2418   2.009   1_545  S
O2415      C2420   1.279       .  A
O2416     Cu2418   2.009       .  S
O2416      C2419   1.278   1_565  A
C2420      C2700   1.467       .  S
C2421      C3048   1.453       .  S
C2422      C3041   1.454       .  S
O2423     Cu2431   2.020       .  S
O2423      C2433   1.279       .  A
O2424     Cu2431   2.020       .  S
O2424      C2434   1.279       .  A
O2425     Cu2431   1.997       .  S
O2425      C2435   1.273       .  A
O2426      C2436   1.277       .  A
O2427      C2436   1.272       .  A
O2428     Cu2432   1.991       .  S
O2428      C2435   1.278       .  A
O2429     Cu2432   2.018       .  S
O2429      C2434   1.278       .  A
O2430     Cu2432   2.021       .  S
O2430      C2433   1.279       .  A
Cu2431    Cu2432   2.377       .  S
C2433      C3101   1.480       .  S
C2434      C2713   1.471       .  S
C2435      C3028   1.453       .  S
C2436      C3018   1.450       .  S
O2437     Cu2445   2.016       .  S
O2437      C2447   1.279   1_565  A
O2438     Cu2445   2.014   1_545  S
O2438      C2448   1.277       .  A
O2439     Cu2445   2.005   1_545  S
O2439      C2449   1.280       .  A
O2440     Cu2445   2.008       .  S
O2440      C2450   1.274       .  A
O2441     Cu2446   1.960       .  S
O2442     Cu2446   1.973       .  S
O2443     Cu2446   2.012       .  S
O2444     Cu2446   2.014       .  S
C2447      C3091   1.485       .  S
C2448      C2727   1.467       .  S
C2449      C3051   1.454       .  S
C2450      C3038   1.453       .  S
O2451     Cu2459   2.024       .  S
O2451      C2461   1.280       .  A
O2452     Cu2459   2.024       .  S
O2452      C2462   1.279       .  A
O2453     Cu2459   1.982       .  S
O2453      C2463   1.277       .  A
O2454     Cu2459   1.992       .  S
O2454      C2464   1.272       .  A
O2455     Cu2460   1.995       .  S
O2455      C2464   1.278       .  A
O2456     Cu2460   2.005       .  S
O2456      C2463   1.274       .  A
O2457     Cu2460   1.999       .  S
O2457      C2462   1.276       .  A
O2458     Cu2460   2.008       .  S
O2458      C2461   1.277       .  A
Cu2459    Cu2460   2.377       .  S
C2461      C3061   1.477       .  S
C2462      C2741   1.466       .  S
C2463      C3031   1.454       .  S
C2464      C3021   1.452       .  S
O2465     Cu2473   2.012       .  S
O2465      C2475   1.276       .  A
O2466     Cu2473   2.008       .  S
O2466      C2476   1.278       .  A
O2467     Cu2473   2.009   1_565  S
O2467      C2477   1.275       .  A
O2468      C2478   1.279   1_655  A
O2470     Cu2474   1.976       .  S
O2471     Cu2474   2.023       .  S
O2472     Cu2474   2.022       .  S
C2475      C2532   1.471       .  S
C2476      C3008   1.486       .  S
C2477      C2991   1.454       .  S
C2478      C2998   1.447       .  S
O2479     Cu2487   1.987       .  S
O2480     Cu2487   2.004       .  S
O2481     Cu2487   2.019       .  S
O2482     Cu2487   2.007       .  S
O2483     Cu2488   2.014       .  S
O2483      C2492   1.278       .  A
O2484     Cu2488   2.010       .  S
O2484      C2491   1.278       .  A
O2485     Cu2488   1.992       .  S
O2485      C2490   1.272       .  A
O2486     Cu2488   1.980       .  S
O2486      C2489   1.277   1_655  A
C2489      C3001   1.446       .  S
C2490      C2988   1.457       .  S
C2491      C2546   1.468       .  S
C2492      C2978   1.469       .  S
O2493     Cu2501   1.994       .  S
O2493      C2503   1.278       .  A
O2494      C2504   1.271       .  A
O2495     Cu2501   2.026       .  S
O2495      C2505   1.279   1_565  A
O2496     Cu2501   2.023       .  S
O2496      C2506   1.279   1_565  A
O2497     Cu2502   2.005       .  S
O2497      C2506   1.277       .  A
O2498     Cu2502   2.005       .  S
O2498      C2505   1.277       .  A
O2499      C2504   1.278       .  A
O2500     Cu2502   2.006   1_565  S
O2500      C2503   1.274       .  A
Cu2501    Cu2502   2.378   1_565  S
C2503      C2948   1.457       .  S
C2504      C2958   1.447       .  S
C2505      C2559   1.470       .  S
C2506      C2968   1.472       .  S
O2507     Cu2515   1.978       .  S
O2507      C2517   1.270       .  A
O2508     Cu2515   1.979       .  S
O2508      C2518   1.276       .  A
O2509     Cu2515   2.020       .  S
O2509      C2519   1.280       .  A
O2510     Cu2515   2.015       .  S
O2510      C2520   1.280       .  A
O2511     Cu2516   2.000       .  S
O2511      C2520   1.277       .  A
O2512     Cu2516   2.004       .  S
O2512      C2519   1.276       .  A
O2513     Cu2516   2.011       .  S
O2513      C2518   1.275       .  A
O2514     Cu2516   1.999       .  S
O2514      C2517   1.280       .  A
Cu2515    Cu2516   2.379       .  S
C2517      C2961   1.447       .  S
C2518      C2951   1.456       .  S
C2519      C2574   1.465       .  S
C2520      C2938   1.480       .  S
O2521     Cu2529   1.997       .  S
O2522     Cu2529   1.999       .  S
O2524     Cu2529   2.043   1_565  S
O2525     Cu2530   2.018   1_565  S
O2525      C2534   1.277       .  A
O2526      C2533   1.276       .  A
O2527     Cu2530   2.035       .  S
O2527      C2532   1.281       .  A
O2528     Cu2530   2.036       .  S
O2528      C2531   1.281       .  A
C2531      C2933   1.485       .  S
C2533      C2929   1.499       .  S
C2534      C2926   1.490       .  S
O2535     Cu2543   2.027       .  S
O2536     Cu2543   2.026       .  S
O2537     Cu2543   2.006       .  S
O2538     Cu2543   2.022       .  S
O2539     Cu2544   2.058       .  S
O2539      C2548   1.285       .  A
O2540     Cu2544   2.055       .  S
O2540      C2547   1.284       .  A
O2541     Cu2544   2.003       .  S
O2541      C2546   1.275       .  A
O2542     Cu2544   2.005       .  S
O2542      C2545   1.277       .  A
C2545      C2921   1.482       .  S
C2547      C2925   1.488       .  S
C2548      C2930   1.500       .  S
O2549     Cu2557   2.029       .  S
O2549      C2559   1.280   1_565  A
O2550     Cu2557   2.030   1_545  S
O2550      C2560   1.281       .  A
O2551     Cu2557   2.005       .  S
O2551      C2561   1.276       .  A
O2552      C2562   1.278       .  A
O2553      C2562   1.282       .  A
O2554     Cu2558   2.045   1_565  S
O2554      C2561   1.283       .  A
O2555     Cu2558   2.007       .  S
O2555      C2560   1.276       .  A
O2556     Cu2558   2.004       .  S
O2556      C2559   1.276       .  A
Cu2557    Cu2558   2.371   1_565  S
C2560      C2917   1.482       .  S
C2561      C2909   1.489       .  S
C2562      C2913   1.492       .  S
O2563     Cu2571   2.009       .  S
O2563      C2573   1.276       .  A
O2564     Cu2571   2.009       .  S
O2564      C2574   1.277       .  A
O2565     Cu2571   2.026       .  S
O2565      C2575   1.280       .  A
O2566     Cu2571   2.046       .  S
O2566      C2576   1.283       .  A
O2567     Cu2572   2.018       .  S
O2567      C2576   1.278       .  A
O2568     Cu2572   2.024       .  S
O2568      C2575   1.278       .  A
O2569     Cu2572   2.016       .  S
O2569      C2574   1.278       .  A
O2570     Cu2572   2.017       .  S
O2570      C2573   1.281       .  A
Cu2571    Cu2572   2.372       .  S
C2573      C2905   1.480       .  S
C2575      C2910   1.485       .  S
C2576      C2914   1.491       .  S
O2577     Cu2585   2.000   1_655  S
O2577      C2587   1.273       .  A
O2578      C2588   1.272       .  A
O2579     Cu2585   2.041   1_565  S
O2579      C2589   1.282   1_565  A
O2580     Cu2585   2.043       .  S
O2580      C2590   1.285       .  A
O2581     Cu2586   2.002       .  S
O2582     Cu2586   1.998       .  S
O2584     Cu2586   2.042   1_655  S
C2587      C2893   1.491       .  S
C2588      C2897   1.489       .  S
C2589      C2644   1.466       .  S
C2590      C2901   1.480       .  S
O2591     Cu2599   1.992       .  S
O2591      C2601   1.274       .  A
O2592     Cu2599   1.989       .  S
O2592      C2602   1.274       .  A
O2593      C2603   1.281       .  A
O2594     Cu2599   2.037       .  S
O2594      C2604   1.282       .  A
O2595     Cu2600   2.027       .  S
O2595      C2604   1.279       .  A
O2596      C2603   1.279       .  A
O2597     Cu2600   2.036       .  S
O2597      C2602   1.281       .  A
O2598     Cu2600   2.043       .  S
O2598      C2601   1.282       .  A
Cu2599    Cu2600   2.372       .  S
C2601      C2889   1.479       .  S
C2602      C2658   1.468       .  S
C2603      C2885   1.489       .  S
C2604      C2881   1.492       .  S
O2605     Cu2613   2.051       .  S
O2606     Cu2613   2.053       .  S
O2607     Cu2613   2.013       .  S
O2608     Cu2613   2.013       .  S
O2609     Cu2614   2.070       .  S
O2609      C2618   1.287       .  A
O2610     Cu2614   2.060       .  S
O2610      C2617   1.286       .  A
O2611     Cu2614   1.967       .  S
O2611      C2616   1.269       .  A
O2612     Cu2614   1.969       .  S
O2612      C2615   1.270       .  A
C2615      C2672   1.469       .  S
C2616      C2877   1.476       .  S
C2617      C2898   1.490       .  S
C2618      C2894   1.490       .  S
O2619     Cu2627   2.043       .  S
O2619      C2629   1.282       .  A
O2620     Cu2627   2.026       .  S
O2620      C2630   1.280       .  A
O2621     Cu2627   2.018       .  S
O2621      C2631   1.278       .  A
O2622     Cu2627   2.018       .  S
O2622      C2632   1.278       .  A
O2623     Cu2628   2.008       .  S
O2623      C2632   1.277       .  A
O2624     Cu2628   2.008       .  S
O2624      C2631   1.279       .  A
O2625     Cu2628   2.030       .  S
O2625      C2630   1.280       .  A
O2626     Cu2628   2.022       .  S
O2626      C2629   1.279       .  A
Cu2627    Cu2628   2.372       .  S
C2629      C2882   1.491       .  S
C2630      C2886   1.489       .  S
C2631      C2873   1.481       .  S
C2632      C2687   1.466       .  S
O2633     Cu2641   2.013       .  S
O2634     Cu2641   2.007       .  S
O2635     Cu2641   1.976       .  S
O2637      C2646   1.280       .  A
O2638     Cu2642   2.005   1_655  S
O2638      C2645   1.274       .  A
O2639     Cu2642   2.020       .  S
O2639      C2644   1.277   1_565  A
O2640     Cu2642   2.015   1_545  S
O2640      C2643   1.279       .  A
C2643      C3011   1.485       .  S
C2645      C2854   1.450       .  S
C2646      C2864   1.451       .  S
O2647     Cu2655   1.998       .  S
O2647      C2657   1.276       .  A
O2648     Cu2655   1.996       .  S
O2648      C2658   1.277       .  A
O2649     Cu2655   1.982       .  S
O2649      C2659   1.277       .  A
O2650      C2660   1.273       .  A
O2651      C2660   1.278       .  A
O2652     Cu2656   1.994   1_655  S
O2652      C2659   1.272       .  A
O2653     Cu2656   2.027       .  S
O2653      C2658   1.279   1_455  A
O2654     Cu2656   2.019   1_655  S
O2654      C2657   1.280       .  A
Cu2655    Cu2656   2.379   1_655  S
C2657      C2981   1.474       .  S
C2659      C2834   1.449       .  S
C2660      C2844   1.453       .  S
O2661     Cu2669   2.011       .  S
O2661      C2671   1.278       .  A
O2662     Cu2669   2.003       .  S
O2662      C2672   1.279       .  A
O2663     Cu2669   1.978   1_565  S
O2663      C2673   1.270       .  A
O2664     Cu2669   1.975       .  S
O2664      C2674   1.275       .  A
O2665     Cu2670   2.004       .  S
O2666     Cu2670   2.005       .  S
O2667     Cu2670   2.025       .  S
O2668     Cu2670   2.016       .  S
C2671      C2971   1.480       .  S
C2673      C2857   1.451       .  S
C2674      C2867   1.450       .  S
O2675     Cu2683   2.003       .  S
O2675      C2685   1.274       .  A
O2676     Cu2683   1.998       .  S
O2676      C2686   1.279       .  A
O2677     Cu2683   2.002       .  S
O2677      C2687   1.276       .  A
O2678     Cu2683   2.000       .  S
O2678      C2688   1.277       .  A
O2679     Cu2684   2.016       .  S
O2679      C2688   1.280       .  A
O2680     Cu2684   2.023       .  S
O2680      C2687   1.279       .  A
O2681     Cu2684   1.982       .  S
O2681      C2686   1.270       .  A
O2682     Cu2684   1.981       .  S
O2682      C2685   1.276       .  A
Cu2683    Cu2684   2.379       .  S
C2685      C2847   1.453       .  S
C2686      C2837   1.450       .  S
C2688      C2941   1.480       .  S
O2689     Cu2697   2.061       .  S
O2690     Cu2697   2.056       .  S
O2691     Cu2697   1.990   1_655  S
O2693      C2702   1.284       .  A
O2694     Cu2698   2.065   1_655  S
O2694      C2701   1.286       .  A
O2695     Cu2698   1.974       .  S
O2695      C2700   1.271       .  A
O2696     Cu2698   1.971       .  S
O2696      C2699   1.270       .  A
C2699      C2902   1.477   1_556  S
C2701      C2825   1.489       .  S
C2702      C2829   1.491       .  S
O2703      C2713   1.276       .  A
O2704     Cu2711   2.013       .  S
O2704      C2714   1.279       .  A
O2705      C2715   1.283       .  A
O2706     Cu2711   2.048       .  S
O2706      C2716   1.282       .  A
O2707     Cu2712   2.035       .  S
O2707      C2716   1.280       .  A
O2708      C2715   1.278       .  A
O2709     Cu2712   2.024       .  S
O2709      C2714   1.278       .  A
O2710      C2713   1.280       .  A
Cu2711    Cu2712   2.368       .  S
C2714      C2890   1.485   1_556  S
C2715      C2821   1.493       .  S
C2716      C2817   1.498       .  S
O2717     Cu2725   1.979       .  S
O2718     Cu2725   1.986       .  S
O2719     Cu2725   2.058       .  S
O2720     Cu2725   2.070       .  S
O2721     Cu2726   2.006       .  S
O2721      C2730   1.276       .  A
O2722     Cu2726   2.011       .  S
O2722      C2729   1.276       .  A
O2723     Cu2726   2.031       .  S
O2723      C2728   1.284       .  A
O2724     Cu2726   2.027       .  S
O2724      C2727   1.280       .  A
C2728      C2878   1.482   1_556  S
C2729      C2826   1.491       .  S
C2730      C2830   1.493       .  S
O2731     Cu2739   1.998       .  S
O2731      C2741   1.276       .  A
O2732     Cu2739   1.998       .  S
O2732      C2742   1.275       .  A
O2733     Cu2739   2.028       .  S
O2733      C2743   1.280       .  A
O2734     Cu2739   2.033       .  S
O2734      C2744   1.280       .  A
O2735     Cu2740   2.040       .  S
O2735      C2744   1.282       .  A
O2736     Cu2740   2.052       .  S
O2736      C2743   1.283       .  A
O2737     Cu2740   2.029       .  S
O2737      C2742   1.280       .  A
O2738     Cu2740   2.024       .  S
O2738      C2741   1.279       .  A
Cu2739    Cu2740   2.371       .  S
C2742      C2874   1.476   1_556  S
C2743      C2818   1.497       .  S
C2744      C2822   1.495       .  S
O2745     Cu2753   2.019       .  S
O2746     Cu2753   2.017       .  S
O2747     Cu2753   2.027   1_565  S
O2749      C2758   1.283       .  A
O2750     Cu2754   2.039       .  S
O2750      C2757   1.282       .  A
O2751     Cu2754   2.014       .  S
O2751      C2756   1.277       .  A
O2752     Cu2754   2.019       .  S
O2752      C2755   1.278       .  A
C2755      C2934   1.481   1_565  S
C2757      C2809   1.489       .  S
C2758      C2813   1.492       .  S
O2759     Cu2767   2.027       .  S
O2759      C2769   1.279       .  A
O2760     Cu2767   2.025       .  S
O2760      C2770   1.278       .  A
O2761     Cu2767   2.014       .  S
O2761      C2771   1.279       .  A
O2762     Cu2767   2.018       .  S
O2762      C2772   1.279       .  A
O2763     Cu2768   2.024       .  S
O2764     Cu2768   2.025       .  S
O2765     Cu2768   2.037       .  S
O2766     Cu2768   2.030       .  S
C2769      C2810   1.490       .  S
C2770      C2814   1.490       .  S
C2772      C2922   1.480       .  S
O2773     Cu2781   1.996       .  S
O2773      C2783   1.274       .  A
O2774     Cu2781   1.998       .  S
O2774      C2784   1.275       .  A
O2775      C2785   1.285       .  A
O2776     Cu2781   2.058   1_565  S
O2776      C2786   1.285       .  A
O2777     Cu2782   2.009   1_565  S
O2777      C2786   1.276       .  A
O2778      C2785   1.276       .  A
O2779     Cu2782   2.040       .  S
O2779      C2784   1.282       .  A
O2780     Cu2782   2.041       .  S
O2780      C2783   1.282       .  A
Cu2781    Cu2782   2.370       .  S
C2784      C2918   1.484       .  S
C2785      C2805   1.493       .  S
C2786      C2802   1.492       .  S
O2787     Cu2795   2.036       .  S
O2787      C2797   1.282       .  A
O2788     Cu2795   2.038       .  S
O2788      C2798   1.282       .  A
O2789     Cu2795   2.015       .  S
O2789      C2799   1.277       .  A
O2790     Cu2795   2.006       .  S
O2790      C2800   1.275       .  A
O2791     Cu2796   2.062       .  S
O2791      C2800   1.286       .  A
O2792     Cu2796   2.052       .  S
O2792      C2799   1.284       .  A
O2793     Cu2796   1.989       .  S
O2793      C2798   1.273       .  A
O2794     Cu2796   1.991       .  S
O2794      C2797   1.273       .  A
Cu2795    Cu2796   2.371       .  S
C2798      C2906   1.476       .  S
C2799      C2801   1.493       .  S
C2800      C2806   1.493       .  S
C2801      C2802   1.346       .  D
C2801      H2803   1.086       .  S
C2802      H2804   1.087       .  S
C2805      C2806   1.345       .  D
C2805      H2807   1.086       .  S
C2806      H2808   1.087       .  S
C2809      C2810   1.349       .  D
C2809      H2811   1.086   1_655  S
C2813      C2814   1.354       .  D
C2813      H2815   1.086       .  S
C2817      C2818   1.352       .  D
C2817      H2819   1.086       .  S
C2818      H2820   1.086       .  S
C2821      C2822   1.350       .  D
C2821      H2823   1.087       .  S
C2822      H2824   1.086       .  S
C2825      C2826   1.343       .  D
C2826      H2828   1.087   1_545  S
C2829      C2830   1.357       .  D
C2830      H2832   1.086       .  S
C2833      C2834   1.400       .  A
C2833      C2838   1.392       .  A
C2833      H2839   1.084       .  S
C2834      C2835   1.401       .  A
C2835      C2836   1.393       .  A
C2835      H2840   1.084       .  S
C2836      C2837   1.399       .  A
C2836      H2841   1.084       .  S
C2837      C2838   1.399       .  A
C2838      H2842   1.084       .  S
C2843      C2844   1.400       .  A
C2843      C2848   1.393       .  A
C2843      H2849   1.084       .  S
C2844      C2845   1.400       .  A
C2845      C2846   1.394       .  A
C2845      H2850   1.084       .  S
C2846      C2847   1.400       .  A
C2846      H2851   1.084       .  S
C2847      C2848   1.401       .  A
C2848      H2852   1.084       .  S
C2853      C2854   1.402       .  A
C2853      C2858   1.393       .  A
C2853      H2859   1.084       .  S
C2854      C2855   1.402       .  A
C2855      C2856   1.393       .  A
C2855      H2860   1.084       .  S
C2856      C2857   1.399       .  A
C2856      H2861   1.084       .  S
C2857      C2858   1.399       .  A
C2858      H2862   1.084       .  S
C2863      C2868   1.394       .  A
C2863      H2869   1.084       .  S
C2864      C2865   1.399       .  A
C2865      C2866   1.393       .  A
C2865      H2870   1.084       .  S
C2866      C2867   1.401       .  A
C2866      H2871   1.084       .  S
C2868      H2872   1.084       .  S
C2873      C2874   1.344       .  D
C2873      H2875   1.087       .  S
C2874      H2876   1.087       .  S
C2877      C2878   1.338       .  D
C2878      H2880   1.085       .  S
C2881      C2882   1.349       .  D
C2881      H2883   1.087       .  S
C2882      H2884   1.087       .  S
C2885      C2886   1.351       .  D
C2885      H2887   1.086       .  S
C2886      H2888   1.087       .  S
C2889      C2890   1.344       .  D
C2889      H2891   1.087       .  S
C2893      C2894   1.341       .  D
C2893      H2895   1.087       .  S
C2897      C2898   1.341       .  D
C2897      H2899   1.087       .  S
C2901      C2902   1.336       .  D
C2901      H2903   1.086       .  S
C2905      C2906   1.342       .  D
C2905      H2907   1.086       .  S
C2906      H2908   1.087       .  S
C2909      C2910   1.352       .  D
C2909      H2911   1.086       .  S
C2910      H2912   1.086       .  S
C2913      C2914   1.348       .  D
C2913      H2915   1.086       .  S
C2914      H2916   1.086       .  S
C2917      C2918   1.352       .  D
C2918      H2920   1.086       .  S
C2921      C2922   1.348       .  D
C2921      H2923   1.086   1_655  S
C2925      C2926   1.345       .  D
C2926      H2928   1.086       .  S
C2929      C2930   1.349       .  D
C2929      H2931   1.086       .  S
C2933      C2934   1.350       .  D
C2933      H2935   1.086   1_545  S
C2937      C2938   1.404       .  A
C2937      C2942   1.398       .  A
C2937      H2943   1.083       .  S
C2938      C2939   1.407       .  A
C2939      C2940   1.397       .  A
C2939      H2944   1.083       .  S
C2940      C2941   1.404       .  A
C2940      H2945   1.083       .  S
C2941      C2942   1.407       .  A
C2942      H2946   1.083       .  S
C2947      C2948   1.401       .  A
C2947      C2952   1.396       .  A
C2947      H2953   1.083       .  S
C2948      C2949   1.400       .  A
C2949      C2950   1.394       .  A
C2949      H2954   1.084       .  S
C2950      C2951   1.402       .  A
C2950      H2955   1.084       .  S
C2951      C2952   1.401       .  A
C2952      H2956   1.084       .  S
C2957      C2958   1.400       .  A
C2957      C2962   1.392       .  A
C2957      H2963   1.084       .  S
C2958      C2959   1.400       .  A
C2959      C2960   1.390       .  A
C2959      H2964   1.084       .  S
C2960      C2961   1.398       .  A
C2960      H2965   1.084       .  S
C2961      C2962   1.399       .  A
C2962      H2966   1.084       .  S
C2967      C2968   1.402   1_565  A
C2967      C2972   1.401       .  A
C2967      H2973   1.083       .  S
C2969      C2970   1.397       .  A
C2969      H2974   1.084       .  S
C2970      H2975   1.083       .  S
C2971      C2972   1.407   1_545  A
C2972      H2976   1.083       .  S
C2977      C2982   1.398       .  A
C2977      H2983   1.083       .  S
C2978      C2979   1.404   1_655  A
C2979      C2980   1.397       .  A
C2979      H2984   1.084       .  S
C2980      C2981   1.403   1_455  A
C2980      H2985   1.083       .  S
C2982      H2986   1.083       .  S
C2987      C2992   1.394       .  A
C2987      H2993   1.084       .  S
C2988      C2989   1.400       .  A
C2989      C2990   1.396       .  A
C2989      H2994   1.084       .  S
C2990      C2991   1.403       .  A
C2990      H2995   1.084       .  S
C2992      H2996   1.084       .  S
C2997      C3002   1.393       .  A
C2997      H3003   1.084       .  S
C2998      C2999   1.398       .  A
C2999      C3000   1.389       .  A
C2999      H3004   1.084       .  S
C3000      C3001   1.400       .  A
C3000      H3005   1.084       .  S
C3002      H3006   1.084       .  S
C3007      C3012   1.401       .  A
C3007      H3013   1.083       .  S
C3009      C3010   1.400       .  A
C3009      H3014   1.083       .  S
C3010      H3015   1.083       .  S
C3012      H3016   1.083       .  S
C3017      C3018   1.401       .  A
C3017      C3022   1.392       .  A
C3017      H3023   1.084       .  S
C3018      C3019   1.400       .  A
C3019      C3020   1.394       .  A
C3019      H3024   1.084       .  S
C3020      C3021   1.400       .  A
C3020      H3025   1.084       .  S
C3021      C3022   1.400       .  A
C3022      H3026   1.084       .  S
C3027      C3028   1.400       .  A
C3027      C3032   1.393       .  A
C3027      H3033   1.084       .  S
C3028      C3029   1.401       .  A
C3029      C3030   1.394       .  A
C3029      H3034   1.084       .  S
C3030      C3031   1.400       .  A
C3030      H3035   1.084       .  S
C3031      C3032   1.402       .  A
C3032      H3036   1.084       .  S
C3037      C3042   1.394       .  A
C3037      H3043   1.084       .  S
C3038      C3039   1.402       .  A
C3039      C3040   1.395       .  A
C3039      H3044   1.084       .  S
C3040      C3041   1.399       .  A
C3040      H3045   1.084       .  S
C3042      H3046   1.084       .  S
C3047      C3052   1.395       .  A
C3047      H3053   1.084       .  S
C3048      C3049   1.402       .  A
C3049      C3050   1.394       .  A
C3049      H3054   1.084       .  S
C3050      C3051   1.399       .  A
C3050      H3055   1.084       .  S
C3052      H3056   1.083       .  S
C3057      C3058   1.404       .  A
C3057      C3062   1.400       .  A
C3057      H3063   1.083       .  S
C3058      C3059   1.405       .  A
C3059      C3060   1.402       .  A
C3059      H3064   1.083       .  S
C3060      C3061   1.405       .  A
C3060      H3065   1.083       .  S
C3061      C3062   1.405       .  A
C3062      H3066   1.083       .  S
C3067      C3068   1.399       .  A
C3067      C3072   1.394       .  A
C3067      H3073   1.084       .  S
C3068      C3069   1.401       .  A
C3069      C3070   1.394       .  A
C3069      H3074   1.084       .  S
C3070      C3071   1.399       .  A
C3070      H3075   1.084       .  S
C3071      C3072   1.402       .  A
C3072      H3076   1.084       .  S
C3077      C3078   1.401       .  A
C3077      C3082   1.391       .  A
C3077      H3083   1.084       .  S
C3078      C3079   1.400       .  A
C3079      C3080   1.394       .  A
C3079      H3084   1.084       .  S
C3080      C3081   1.400       .  A
C3080      H3085   1.084       .  S
C3081      C3082   1.398       .  A
C3082      H3086   1.084       .  S
C3087      C3092   1.399       .  A
C3087      H3093   1.083       .  S
C3088      C3089   1.406   1_545  A
C3089      C3090   1.400       .  A
C3089      H3094   1.083       .  S
C3090      C3091   1.406   1_565  A
C3090      H3095   1.083       .  S
C3092      H3096   1.083       .  S
C3097      C3102   1.402       .  A
C3097      H3103   1.083       .  S
C3098      C3099   1.406       .  A
C3099      C3100   1.401       .  A
C3099      H3104   1.083       .  S
C3100      C3101   1.404       .  A
C3100      H3105   1.083       .  S
C3102      H3106   1.083       .  S
C3107      C3112   1.393       .  A
C3107      H3113   1.084       .  S
C3108      C3109   1.400       .  A
C3109      C3110   1.395       .  A
C3109      H3114   1.083       .  S
C3110      C3111   1.401       .  A
C3110      H3115   1.084       .  S
C3112      H3116   1.084       .  S
C3117      C3122   1.392       .  A
C3117      H3123   1.084       .  S
C3118      C3119   1.399       .  A
C3119      C3120   1.390       .  A
C3119      H3124   1.084       .  S
C3120      C3121   1.400       .  A
C3120      H3125   1.084       .  S
C3122      H3126   1.084       .  S
C3127      C3132   1.398       .  A
C3127      H3133   1.083       .  S
C3129      C3130   1.400       .  A
C3129      H3134   1.083       .  S
C3130      H3135   1.083       .  S
C3131      C3132   1.407   1_545  A
C3132      H3136   1.083       .  S
