geometry optimzed in LAMMPS
_audit_creation_date              2020-11-30 
_audit_creation_method            'lammps2cif' 
_symmetry_space_group_name_H-M    'P1' 
_symmetry_Int_Tables_number       1 
_symmetry_cell_setting            triclinic 
loop_ 
_symmetry_equiv_pos_as_xyz 
  x,y,z 
_cell_length_a                    47.61744463 
_cell_length_b                    47.53684224593501 
_cell_length_c                    48.21606465951559 
_cell_angle_alpha                 90.18782996053906 
_cell_angle_beta                  89.88087697202172 
_cell_angle_gamma                 120.10217425916119 
loop_ 
_atom_site_label 
_atom_site_type_symbol 
_atom_site_fract_x 
_atom_site_fract_y 
_atom_site_fract_z 
_atom_site_charge 
N1          N  0.30867003  0.34979894  0.46455887    -0.27500
N2          N  0.32462540  0.37547381  0.48078459    -0.35300
C3          C  0.34634243  0.40074108  0.46547971     0.00900
C4          C  0.34433249  0.39043680  0.43826194     0.06900
C5          C  0.32016626  0.35792842  0.43849711    -0.06200
H6          H  0.36359298  0.42434917  0.47384640     0.07600
H7          H  0.31188139  0.34127813  0.42109121     0.08800
Cu8        Cu  0.31956253  0.37280324  0.02365147     0.44200
Cu9        Cu  0.27290859  0.30485132  0.47971376     0.42000
Cu10       Cu  0.26713420  0.29305832  0.05491342     0.43900
N11         N  0.32008117  0.36269044  0.06546007    -0.34900
N12         N  0.30255284  0.33365056  0.07685507    -0.29100
C13         C  0.31245073  0.33519527  0.10334213    -0.05200
C14         C  0.33715001  0.36677733  0.10888394     0.07000
C15         C  0.34109961  0.38337009  0.08432060     0.00800
H16         H  0.30279177  0.31470972  0.11735370     0.08400
H17         H  0.35928903  0.40828461  0.07989889     0.07500
N18         N  0.23487807  0.25826310  0.02650905    -0.36300
N19         N  0.23729418  0.26298517  0.49939571    -0.28500
C20         C  0.21325325  0.23666570  0.48676867    -0.03700
C21         C  0.19429973  0.21391403  0.00668782     0.04900
C22         C  0.20884255  0.22873878  0.03174567     0.03000
H23         H  0.21006786  0.23452191  0.46453348     0.08100
H24         H  0.20113117  0.21890995  0.05234293     0.06900
N25         N  0.70351219  0.67059858  0.46271653    -0.27500
N26         N  0.68530882  0.64332306  0.47653293    -0.35300
C27         C  0.66386470  0.62068084  0.45897049     0.00900
C28         C  0.66834953  0.63442698  0.43293151     0.06900
C29         C  0.69358873  0.66613034  0.43609549    -0.06200
H30         H  0.64500028  0.59664922  0.46508958     0.07600
H31         H  0.70354772  0.68478168  0.42032383     0.08800
Cu32       Cu  0.68626707  0.63972327  0.01937151     0.44200
Cu33       Cu  0.74020844  0.71323226  0.48094380     0.42000
Cu34       Cu  0.73932245  0.71390280  0.05613352     0.43900
N35         N  0.68447573  0.64465583  0.06208215    -0.34900
N36         N  0.70286689  0.67225270  0.07545532    -0.29100
C37         C  0.69350888  0.66847951  0.10223023    -0.05200
C38         C  0.66820936  0.63687615  0.10596214     0.07000
C39         C  0.66325221  0.62251658  0.08001812     0.00800
H40         H  0.70419467  0.68742995  0.11778300     0.08400
H41         H  0.64459421  0.59819677  0.07429923     0.07500
N42         N  0.77458030  0.75184443  0.03228411    -0.36300
N43         N  0.77507125  0.75176895  0.50476856    -0.28500
C44         C  0.80132006  0.77945313  0.49603754    -0.03700
C45         C  0.81809303  0.79822682  0.01919123     0.04900
C46         C  0.80019772  0.77946774  0.04167541     0.03000
H47         H  0.80776117  0.78541819  0.47447129     0.08100
H48         H  0.80520555  0.78527627  0.06344354     0.06900
O49         O  0.46862388  0.49599865  0.24011516    -0.73100
O50         O  0.53595621  0.54112966  0.29941080    -0.74100
O51         O  0.53624268  0.54247237  0.24021841    -0.62700
O52         O  0.46851987  0.49418111  0.29978508    -0.71100
O53         O  0.48007037  0.45449219  0.29756943    -0.70700
O54         O  0.54652260  0.50188955  0.23850701    -0.61900
O55         O  0.54737307  0.50133193  0.29806391    -0.74500
O56         O  0.47893158  0.45543092  0.23863350    -0.73200
Cu57       Cu  0.50192712  0.51982250  0.26992183     1.04600
Cu58       Cu  0.51368413  0.47697489  0.26817273     1.04300
C59         C  0.46315682  0.46887309  0.22981798     0.93100
C60         C  0.55213737  0.52825660  0.30838472     0.92200
C61         C  0.55170616  0.52941819  0.22969353     0.84400
C62         C  0.46381409  0.46658130  0.30812339     0.90600
N63         N  0.68313113  0.99890419  0.44005098    -0.27500
N64         N  0.65616034  0.99136171  0.45365476    -0.35300
C65         C  0.63448625  0.99156034  0.43591138     0.00900
C66         C  0.64856233  0.99991759  0.40981923     0.06900
C67         C  0.67950731  0.00451624  0.41329334    -0.06200
H68         H  0.61052681  0.98675108  0.44174562     0.07600
H69         H  0.69787859  0.01100116  0.39747861     0.08800
Cu70       Cu  0.65156150  0.98365825  0.49616104     0.44200
Cu71       Cu  0.72281315  0.99990408  0.45904347     0.42000
Cu72       Cu  0.72220726  0.99244696  0.03437299     0.43900
N73         N  0.65534842  0.98533701  0.03901304    -0.34900
N74         N  0.68138786  0.99040275  0.05300309    -0.29100
C75         C  0.67682127  0.99422227  0.08007254    -0.05200
C76         C  0.64629057  0.99080662  0.08321284     0.07000
C77         C  0.63342671  0.98511615  0.05677085     0.00800
H78         H  0.69449282  0.99936276  0.09623552     0.08400
H79         H  0.61045184  0.98267767  0.05066797     0.07500
N80         N  0.75854861  0.99368660  0.00887731    -0.36300
N81         N  0.75832103  0.99652281  0.48143556    -0.28500
C82         C  0.78473567  0.99719205  0.47076500    -0.03700
C83         C  0.80280263  0.99466327  0.49217359     0.04900
C84         C  0.78519590  0.99228639  0.01617253     0.03000
H85         H  0.79027973  0.99956958  0.44885872     0.08100
H86         H  0.79149630  0.99035759  0.03733725     0.06900
N87         N  0.33659013  0.03845357  0.43932588    -0.27500
N88         N  0.36553740  0.05206443  0.45116191    -0.35300
C89         C  0.38737452  0.05315490  0.43285214     0.00900
C90         C  0.37160865  0.03925606  0.40822606     0.06900
C91         C  0.33934417  0.03009649  0.41310155    -0.06200
H92         H  0.41261742  0.06189014  0.43765019     0.07600
H93         H  0.31930556  0.01796741  0.39874765     0.08800
Cu94       Cu  0.37411066  0.06392165  0.49280523     0.44200
Cu95       Cu  0.29475794  0.03135016  0.46018112     0.42000
Cu96       Cu  0.30415941  0.03980148  0.03527842     0.43900
N97         N  0.37550725  0.06233012  0.03538306    -0.34900
N98         N  0.34949497  0.05160815  0.05125500    -0.29100
C99         C  0.35769506  0.04921974  0.07752801    -0.05200
C100        C  0.39057040  0.05929521  0.07819620     0.07000
C101        C  0.40099544  0.06749667  0.05106451     0.00800
H102        H  0.34089372  0.04037340  0.09477104     0.08400
H103        H  0.42494093  0.07491401  0.04301566     0.07500
N104        N  0.26209548  0.03070308  0.01427534    -0.36300
N105        N  0.25880909  0.02855354  0.48725167    -0.28500
C106        C  0.22903601  0.02360154  0.48090080    -0.03700
C107        C  0.21331343  0.02368047  0.50527786     0.04900
C108        C  0.23502354  0.02780861  0.02582263     0.03000
H109        H  0.21952070  0.01999913  0.46004029     0.08100
H110        H  0.23216978  0.03002016  0.04783199     0.06900
O111        O  0.46547750  0.99789099  0.27621887    -0.73100
O112        O  0.51096238  0.97656382  0.21612985    -0.74100
O113        O  0.51339901  0.97948670  0.27560071    -0.62700
O114        O  0.46246149  0.99456391  0.21755867    -0.71100
O115        O  0.50065395  0.04644741  0.21459226    -0.70700
O116        O  0.55238398  0.03117617  0.27351475    -0.61900
O117        O  0.54958111  0.02840510  0.21436321    -0.74500
O118        O  0.50414193  0.04969334  0.27422301    -0.73200
Cu119      Cu  0.48684998  0.98535852  0.24639109     1.04600
Cu120      Cu  0.52805290  0.04077186  0.24404065     1.04300
C121        C  0.47788037  0.02715821  0.28495695     0.93100
C122        C  0.53736419  0.99918405  0.20561611     0.92200
C123        C  0.54040533  0.00289667  0.28432544     0.84400
C124        C  0.47318053  0.02267607  0.20689180     0.90600
N125        N  0.98776366  0.31564180  0.03742234    -0.27500
N126        N  0.97920808  0.33419250  0.02363284    -0.35300
C127        C  0.97959009  0.35660148  0.04107463     0.00900
C128        C  0.98923105  0.35230766  0.06708196     0.06900
C129        C  0.99418433  0.32607898  0.06390600    -0.06200
H130        H  0.97470637  0.37560554  0.03493451     0.07600
H131        H  0.00226077  0.31555288  0.07963545     0.08800
Cu132      Cu  0.97177354  0.33094552  0.48069222     0.44200
Cu133      Cu  0.99168933  0.27765324  0.01935014     0.42000
Cu134      Cu  0.98641744  0.27289006  0.44405345     0.43900
N135        N  0.97349825  0.32869155  0.43760328    -0.34900
N136        N  0.98010484  0.30839286  0.42416435    -0.29100
C137        C  0.98370605  0.31603068  0.39697889    -0.05200
C138        C  0.97889364  0.34225041  0.39305052     0.07000
C139        C  0.97230606  0.34942140  0.41931855     0.00800
H140        H  0.99034334  0.30401964  0.38136004     0.08400
H141        H  0.96905720  0.36964115  0.42500933     0.07500
N142        N  0.99235947  0.24006928  0.46867361    -0.36300
N143        N  0.99446247  0.24183215  0.99612789    -0.28500
C144        C  0.99797723  0.21702819  0.00546852    -0.03700
C145        C  0.99815774  0.19865747  0.48282496     0.04900
C146        C  0.99494782  0.21453087  0.45992460     0.03000
H147        H  0.99999888  0.21253276  0.02714189     0.08100
H148        H  0.99406615  0.20781787  0.43836304     0.06900
N149        N  0.04210141  0.70793485  0.04145559    -0.27500
N150        N  0.05028669  0.68900826  0.02765061    -0.35300
C151        C  0.05287447  0.66879615  0.04563033     0.00900
C152        C  0.04550617  0.67493521  0.07195182     0.06900
C153        C  0.03876203  0.69986803  0.06847563    -0.06200
H154        H  0.05759141  0.64957628  0.03970961     0.07600
H155        H  0.03106538  0.71073435  0.08431338     0.08800
Cu156      Cu  0.05226979  0.68760541  0.98457085     0.44200
Cu157      Cu  0.03387932  0.74272596  0.02298567     0.42000
Cu158      Cu  0.02950327  0.73920093  0.44822907     0.43900
N159        N  0.04511775  0.68559341  0.44212492    -0.34900
N160        N  0.03541601  0.70356464  0.42896601    -0.29100
C161        C  0.03009641  0.69453864  0.40214403    -0.05200
C162        C  0.03705076  0.66981750  0.39810044     0.07000
C163        C  0.04656290  0.66484194  0.42391972     0.00800
H164        H  0.02171931  0.70518199  0.38677344     0.08400
H165        H  0.05289347  0.64664688  0.42932113     0.07500
N166        N  0.02661162  0.77427405  0.47152400    -0.36300
N167        N  0.02808826  0.77577164  0.99889304    -0.28500
C168        C  0.02669931  0.80211127  0.00728048    -0.03700
C169        C  0.02421149  0.81794028  0.98401786     0.04900
C170        C  0.02425543  0.79942869  0.46176142     0.03000
H171        H  0.02820213  0.80952458  0.02870882     0.08100
H172        H  0.02296883  0.80386181  0.43995501     0.06900
O173        O  0.02923945  0.48142498  0.26299794    -0.73100
O174        O  0.05531224  0.55178867  0.20526167    -0.74100
O175        O  0.05268752  0.54960337  0.26485465    -0.62700
O176        O  0.03188895  0.48381952  0.20364804    -0.71100
O177        O  0.98157885  0.47505681  0.20238667    -0.70700
O178        O  0.00238923  0.54084045  0.26313526    -0.61900
O179        O  0.00486100  0.54264465  0.20439036    -0.74500
O180        O  0.97903516  0.47298832  0.26213462    -0.73200
Cu181      Cu  0.04406839  0.51700340  0.23426934     1.04600
Cu182      Cu  0.99022744  0.50747103  0.23299099     1.04300
C183        C  0.00003774  0.46647082  0.27202819     0.93100
C184        C  0.03404795  0.55798756  0.19543479     0.92200
C185        C  0.03080296  0.55551330  0.27372696     0.84400
C186        C  0.00351889  0.46960465  0.19288645     0.90600
C187        C  0.03454768  0.03644420  0.00361324     0.02100
C188        C  0.03711487  0.00810394  0.00132499     0.02100
C189        C  0.00866928  0.97707904  0.00129841     0.02100
C190        C  0.97763865  0.97434350  0.00192062     0.02100
C191        C  0.97504747  0.00274635  0.00339577     0.02100
C192        C  0.00354128  0.03388184  0.00400364     0.02100
C193        C  0.02293887  0.84854999  0.98282916    -0.05400
C194        C  0.02778997  0.86510945  0.45757602    -0.05400
C195        C  0.02631846  0.89369015  0.45616499    -0.23500
C196        C  0.01973162  0.90628467  0.47999174     0.18700
C197        C  0.01480880  0.88999163  0.00546300     0.15900
C198        C  0.01626781  0.86121413  0.00676125    -0.18600
C199        C  0.00810805  0.90257457  0.02930157    -0.20400
C200        C  0.00654729  0.93109306  0.02780334    -0.12900
C201        C  0.01130298  0.94729174  0.00246442     0.03700
C202        C  0.01785188  0.93481683  0.47865961    -0.25100
H203        H  0.03319064  0.85629936  0.43876166     0.08800
H204        H  0.03033597  0.90593805  0.43641156     0.12400
H205        H  0.01185150  0.84859829  0.02635231     0.12300
H206        H  0.00408730  0.89038404  0.04908197     0.12100
H207        H  0.00146651  0.94054289  0.04643695     0.12600
H208        H  0.02129392  0.94727898  0.45907468     0.14600
C209        C  0.03336557  0.65135604  0.37226545    -0.05400
C210        C  0.00946540  0.64645143  0.35271176    -0.05400
C211        C  0.00462955  0.62732253  0.32912703    -0.23500
C212        C  0.02396789  0.61318256  0.32447881     0.18700
C213        C  0.04890884  0.61905335  0.34347915     0.15900
C214        C  0.05323430  0.63781530  0.36734869    -0.18600
C215        C  0.06883954  0.60568684  0.33847647    -0.20400
C216        C  0.06357254  0.58592502  0.31527901    -0.12900
C217        C  0.03801437  0.57879137  0.29684686     0.03700
C218        C  0.01850500  0.59288763  0.30142160    -0.25100
H219        H  0.99383779  0.65661017  0.35606384     0.08800
H220        H  0.98554313  0.62329750  0.31469527     0.12400
H221        H  0.07207741  0.64189732  0.38208650     0.12300
H222        H  0.08824344  0.61016190  0.35270305     0.12100
H223        H  0.07892206  0.57539285  0.31222546     0.12600
H224        H  0.99893649  0.58786836  0.28717917     0.14600
C225        C  0.04275043  0.58225458  0.17297136    -0.05400
C226        C  0.07046963  0.59163801  0.15652202    -0.05400
C227        C  0.07696601  0.61211495  0.13366167    -0.23500
C228        C  0.05608933  0.62394650  0.12704352     0.18700
C229        C  0.02890539  0.61574458  0.14414983     0.15900
C230        C  0.02228805  0.59480874  0.16679496    -0.18600
C231        C  0.00849298  0.62824985  0.13809500    -0.20400
C232        C  0.01460462  0.64827124  0.11506397    -0.12900
C233        C  0.04082437  0.65563273  0.09733146     0.03700
C234        C  0.06162820  0.64348587  0.10348643    -0.25100
H235        H  0.08661355  0.58232082  0.16081017     0.08800
H236        H  0.09808967  0.61835616  0.12095928     0.12400
H237        H  0.00099600  0.58803943  0.17945589     0.12300
H238        H  0.98763106  0.62233340  0.15104700     0.12100
H239        H  0.99817715  0.65720333  0.11061270     0.12600
H240        H  0.08208092  0.64931310  0.09000660     0.14600
C241        C  0.00139098  0.16893691  0.48282629    -0.05400
C242        C  0.00979219  0.15879433  0.45826500    -0.05400
C243        C  0.01206858  0.13057904  0.45763128    -0.23500
C244        C  0.00584519  0.11163891  0.48152005     0.18700
C245        C  0.99806895  0.12187327  0.00660355     0.15900
C246        C  0.99625412  0.15062411  0.00715849    -0.18600
C247        C  0.99180531  0.10277412  0.03051906    -0.20400
C248        C  0.99328389  0.07405664  0.02961688    -0.12900
C249        C  0.00114267  0.06398602  0.00485966     0.03700
C250        C  0.00754468  0.08292649  0.48083338    -0.25100
H251        H  0.01480591  0.17274183  0.43938130     0.08800
H252        H  0.01854508  0.12347724  0.43835361     0.12400
H253        H  0.98983672  0.15798488  0.02631177     0.12300
H254        H  0.98570760  0.11001263  0.04990535     0.12100
H255        H  0.98848583  0.05972799  0.04828026     0.12600
H256        H  0.01380269  0.07528900  0.46171512     0.14600
C257        C  0.99625755  0.44759314  0.16868513    -0.05400
C258        C  0.97118684  0.44226602  0.15025965    -0.05400
C259        C  0.96509481  0.42299516  0.12655165    -0.23500
C260        C  0.98357116  0.40812564  0.12099755     0.18700
C261        C  0.00841274  0.41272055  0.13965962     0.15900
C262        C  0.01490184  0.43276374  0.16314852    -0.18600
C263        C  0.02626433  0.39709478  0.13452059    -0.20400
C264        C  0.01960360  0.37712804  0.11119406    -0.12900
C265        C  0.99542293  0.37287177  0.09218245     0.03700
C266        C  0.97755678  0.38864365  0.09719503    -0.25100
H267        H  0.95666110  0.45361306  0.15387724     0.08800
H268        H  0.94588335  0.41970257  0.11256585     0.12400
H269        H  0.03423606  0.43657544  0.17722733     0.12300
H270        H  0.04533913  0.40022414  0.14859991     0.12100
H271        H  0.03388061  0.36549617  0.10773603     0.12600
H272        H  0.95863339  0.38532219  0.08283729     0.14600
C273        C  0.98434246  0.36166370  0.36742137    -0.05400
C274        C  0.00773394  0.36489193  0.34788970    -0.05400
C275        C  0.01527201  0.38569666  0.32511408    -0.23500
C276        C  0.99911706  0.40324177  0.32111247     0.18700
C277        C  0.97449464  0.39904090  0.33992546     0.15900
C278        C  0.96751861  0.37859354  0.36308074    -0.18600
C279        C  0.95758650  0.41573699  0.33546266    -0.20400
C280        C  0.96538945  0.43686096  0.31292945    -0.12900
C281        C  0.99064142  0.44222207  0.29465411     0.03700
C282        C  0.00736168  0.42514268  0.29883320    -0.25100
H283        H  0.02111323  0.35223987  0.35076435     0.08800
H284        H  0.03402355  0.38835331  0.31081034     0.12400
H285        H  0.94912595  0.37598119  0.37779917     0.12300
H286        H  0.93848804  0.41267344  0.34953707     0.12100
H287        H  0.95221566  0.44976234  0.31024078     0.12600
H288        H  0.02668960  0.42884372  0.28474695     0.14600
C289        C  0.18002011  0.01909487  0.50882845    -0.05400
C290        C  0.16469930  0.01111646  0.03498720    -0.05400
C291        C  0.13389395  0.00745424  0.03882871    -0.23500
C292        C  0.11695587  0.01049963  0.01640260     0.18700
C293        C  0.13131577  0.01716342  0.48980925     0.15900
C294        C  0.16234933  0.02073255  0.48605117    -0.18600
C295        C  0.11396031  0.01938719  0.46723491    -0.20400
C296        C  0.08344585  0.01639577  0.47123630    -0.12900
C297        C  0.06958564  0.01093968  0.49779218     0.03700
C298        C  0.08617422  0.00743472  0.02023885    -0.25100
H299        H  0.17689967  0.00851762  0.05285015     0.08800
H300        H  0.12338648  0.00239695  0.05943594     0.12400
H301        H  0.17284154  0.02528986  0.46546232     0.12300
H302        H  0.12406430  0.02363298  0.44649778     0.12100
H303        H  0.07052740  0.01834224  0.45355986     0.12600
H304        H  0.07518073  0.00250347  0.04066626     0.14600
C305        C  0.38614145  0.03332467  0.38321786    -0.05400
C306        C  0.36776693  0.00584585  0.36647904    -0.05400
C307        C  0.38202250  0.99916805  0.34388057    -0.23500
C308        C  0.41479146  0.02017696  0.33730653     0.18700
C309        C  0.43327780  0.04837170  0.35355213     0.15900
C310        C  0.41895530  0.05456527  0.37654411    -0.18600
C311        C  0.46581196  0.06981245  0.34658290    -0.20400
C312        C  0.48001057  0.06322836  0.32391339    -0.12900
C313        C  0.46212264  0.03484184  0.30801150     0.03700
C314        C  0.42940117  0.01341959  0.31484752    -0.25100
H315        H  0.34255476  0.98901788  0.37130655     0.08800
H316        H  0.36743903  0.97749344  0.33160958     0.12400
H317        H  0.43329381  0.07602683  0.38914295     0.12300
H318        H  0.48032311  0.09162347  0.35872493     0.12100
H319        H  0.50526282  0.08005595  0.31917747     0.12600
H320        H  0.41526958  0.99156207  0.30264189     0.14600
C321        C  0.45327370  0.02707407  0.18552471    -0.05400
C322        C  0.41998852  0.00405368  0.18332615    -0.05400
C323        C  0.40087138  0.00669377  0.16272938    -0.23500
C324        C  0.41468817  0.03214088  0.14352471     0.18700
C325        C  0.44812580  0.05550604  0.14539693     0.15900
C326        C  0.46712671  0.05311775  0.16664357    -0.18600
C327        C  0.46205405  0.08035739  0.12556526    -0.20400
C328        C  0.44323953  0.08165325  0.10386338    -0.12900
C329        C  0.40997805  0.05862556  0.10193480     0.03700
C330        C  0.39575945  0.03415960  0.12212205    -0.25100
H331        H  0.40862593  0.98382956  0.19761478     0.08800
H332        H  0.37533456  0.98849781  0.16157374     0.12400
H333        H  0.49279704  0.07087737  0.16793518     0.12300
H334        H  0.48762494  0.09846624  0.12654899     0.12100
H335        H  0.45468431  0.10078224  0.08858110     0.12600
H336        H  0.37023033  0.01599617  0.12060350     0.14600
C337        C  0.94232448  0.99949691  0.50559363    -0.05400
C338        C  0.92540714  0.99003930  0.03089684    -0.05400
C339        C  0.89446978  0.98643164  0.03328914    -0.23500
C340        C  0.87999669  0.99243938  0.01046495     0.18700
C341        C  0.89690728  0.00191546  0.48484877     0.15900
C342        C  0.92801555  0.00546398  0.48263563    -0.18600
C343        C  0.88253376  0.00786983  0.46203378    -0.20400
C344        C  0.85195884  0.00503053  0.46446240    -0.12900
C345        C  0.83486737  0.99618191  0.48979305     0.03700
C346        C  0.84915136  0.98961887  0.01280511    -0.25100
H347        H  0.93622600  0.98543428  0.04877708     0.08800
H348        H  0.88195465  0.97912852  0.05303165     0.12400
H349        H  0.94110230  0.01276713  0.46313152     0.12300
H350        H  0.89509428  0.01506295  0.44230001     0.12100
H351        H  0.84210025  0.01040534  0.44640309     0.12600
H352        H  0.83647244  0.98258288  0.03247426     0.14600
C353        C  0.55675349  0.99727915  0.30802690    -0.05400
C354        C  0.53795823  0.97332966  0.32768254    -0.05400
C355        C  0.55221367  0.96912715  0.35140366    -0.23500
C356        C  0.58571782  0.98838811  0.35572978     0.18700
C357        C  0.60515896  0.01176017  0.33564844     0.15900
C358        C  0.59050122  0.01639514  0.31207220    -0.18600
C359        C  0.63885767  0.03020639  0.33967183    -0.20400
C360        C  0.65303096  0.02588045  0.36351048    -0.12900
C361        C  0.63373465  0.00350407  0.38401471     0.03700
C362        C  0.60003004  0.98472922  0.37988352    -0.25100
H363        H  0.51191799  0.95842147  0.32513360     0.08800
H364        H  0.53696927  0.95094878  0.36647007     0.12400
H365        H  0.60525575  0.03475670  0.29693894     0.12300
H366        H  0.65423436  0.04806541  0.32445388     0.12100
H367        H  0.67904772  0.04064047  0.36622833     0.12600
H368        H  0.58495832  0.96701776  0.39533622     0.14600
C369        C  0.63138376  0.99520562  0.10859374    -0.05400
C370        C  0.64988557  0.02095948  0.12691972    -0.05400
C371        C  0.63523345  0.02679358  0.14970449    -0.23500
C372        C  0.60196072  0.00646314  0.15490119     0.18700
C373        C  0.58341359  0.97970586  0.13716276     0.15900
C374        C  0.59812887  0.97456651  0.11388424    -0.18600
C375        C  0.55040874  0.95873705  0.14288624    -0.20400
C376        C  0.53573305  0.96456241  0.16564104    -0.12900
C377        C  0.55361343  0.99178592  0.18280354     0.03700
C378        C  0.58686865  0.01256307  0.17737178    -0.25100
H379        H  0.67549141  0.03722312  0.12308170     0.08800
H380        H  0.64987918  0.04731191  0.16315905     0.12400
H381        H  0.58378627  0.95448353  0.09990808     0.12300
H382        H  0.53588014  0.93795457  0.12964982     0.12100
H383        H  0.51011393  0.94823658  0.16936290     0.12600
H384        H  0.60100127  0.03345218  0.19063674     0.14600
C385        C  0.84852364  0.83075215  0.02001800    -0.05400
C386        C  0.86351153  0.84429823  0.04561615    -0.05400
C387        C  0.89159423  0.87482299  0.04702389    -0.23500
C388        C  0.90557673  0.89272720  0.02288591     0.18700
C389        C  0.89103035  0.87952547  0.49691809     0.15900
C390        C  0.86253395  0.84872178  0.49559119    -0.18600
C391        C  0.90470642  0.89817910  0.47289526    -0.20400
C392        C  0.93280865  0.92888447  0.47461282    -0.12900
C393        C  0.94776471  0.94161084  0.00021750     0.03700
C394        C  0.93363503  0.92361767  0.02438388    -0.25100
H395        H  0.85367422  0.83141105  0.06482887     0.08800
H396        H  0.90235942  0.88447801  0.06710912     0.12400
H397        H  0.85098482  0.83942056  0.47570842     0.12300
H398        H  0.89364291  0.88906384  0.45280252     0.12100
H399        H  0.94297526  0.94290603  0.45587945     0.12600
H400        H  0.94452578  0.93377770  0.04433045     0.14600
C401        C  0.57589589  0.54436375  0.33126659    -0.05400
C402        C  0.58913908  0.52779642  0.34527971    -0.05400
C403        C  0.60996211  0.54212254  0.36791717    -0.23500
C404        C  0.61830671  0.57349305  0.37682419     0.18700
C405        C  0.60592171  0.59080302  0.36242741     0.15900
C406        C  0.58462113  0.57605922  0.33996478    -0.18600
C407        C  0.61497765  0.62254103  0.37082312    -0.20400
C408        C  0.63599705  0.63694830  0.39330055    -0.12900
C409        C  0.64768842  0.61962755  0.40821051     0.03700
C410        C  0.63869181  0.58782041  0.39991761    -0.25100
H411        H  0.58288173  0.50342101  0.33908915     0.08800
H412        H  0.61940996  0.52857163  0.37855297     0.12400
H413        H  0.57481269  0.58928468  0.32930216     0.12300
H414        H  0.60579600  0.63622410  0.36001456     0.12100
H415        H  0.64247908  0.66138513  0.39952552     0.12600
H416        H  0.64781652  0.57442056  0.41128452     0.14600
C417        C  0.64896045  0.62215664  0.13150004    -0.05400
C418        C  0.64371073  0.64135241  0.15070930    -0.05400
C419        C  0.62400736  0.62723678  0.17400253    -0.23500
C420        C  0.60963733  0.59371403  0.17880040     0.18700
C421        C  0.61575431  0.57439314  0.16013833     0.15900
C422        C  0.63500234  0.58863338  0.13647194    -0.18600
C423        C  0.60226865  0.54108355  0.16533648    -0.20400
C424        C  0.58231165  0.52687353  0.18841673    -0.12900
C425        C  0.57495738  0.54552521  0.20656120     0.03700
C426        C  0.58900559  0.57911772  0.20172503    -0.25100
H427        H  0.65411094  0.66719652  0.14730651     0.08800
H428        H  0.61981517  0.64251151  0.18814902     0.12400
H429        H  0.63924919  0.57366302  0.12199220     0.12300
H430        H  0.60690337  0.52593269  0.15140351     0.12100
H431        H  0.57184408  0.50097975  0.19162597     0.12600
H432        H  0.58382945  0.59383998  0.21571871     0.14600
C433        C  0.16490176  0.18121176  0.00180589    -0.05400
C434        C  0.15368862  0.17068408  0.47456482    -0.05400
C435        C  0.12631891  0.14030617  0.46947638    -0.23500
C436        C  0.10925533  0.11950867  0.49144809     0.18700
C437        C  0.11987079  0.12965212  0.01901060     0.15900
C438        C  0.14753547  0.16034753  0.02400038    -0.18600
C439        C  0.10246799  0.10888592  0.04104049    -0.20400
C440        C  0.07489440  0.07861964  0.03583049    -0.12900
C441        C  0.06424900  0.06852675  0.00856848     0.03700
C442        C  0.08150505  0.08902264  0.48637813    -0.25100
H443        H  0.16594861  0.18586992  0.45690053     0.08800
H444        H  0.11843449  0.13312726  0.44826302     0.12400
H445        H  0.15537321  0.16785093  0.04514942     0.12300
H446        H  0.11009937  0.11609379  0.06229443     0.12100
H447        H  0.06169548  0.06300535  0.05310247     0.12600
H448        H  0.07315737  0.08133773  0.46532706     0.14600
C449        C  0.36560022  0.40929708  0.41475689    -0.05400
C450        C  0.37786075  0.44298248  0.41275019    -0.05400
C451        C  0.39846254  0.46091452  0.39086068    -0.23500
C452        C  0.40781595  0.44561691  0.37090559     0.18700
C453        C  0.39591070  0.41180518  0.37302136     0.15900
C454        C  0.37456813  0.39384783  0.39461112    -0.18600
C455        C  0.40594478  0.39653313  0.35375945    -0.20400
C456        C  0.42773698  0.41450082  0.33271852    -0.12900
C457        C  0.43965443  0.44808773  0.33011740     0.03700
C458        C  0.42927593  0.46350693  0.34920462    -0.25100
H459        H  0.37124895  0.45540605  0.42801629     0.08800
H460        H  0.40738429  0.48681015  0.38973947     0.12400
H461        H  0.36569488  0.36798322  0.39619064     0.12300
H462        H  0.39721999  0.37069110  0.35514402     0.12100
H463        H  0.43525381  0.40197840  0.31834448     0.12600
H464        H  0.43855657  0.48945041  0.34764909     0.14600
C465        C  0.43894085  0.45367568  0.20713896    -0.05400
C466        C  0.43148096  0.47330539  0.19053174    -0.05400
C467        C  0.40966433  0.46001141  0.16848030    -0.23500
C468        C  0.39438753  0.42663725  0.16274482     0.18700
C469        C  0.40086166  0.40632303  0.17966313     0.15900
C470        C  0.42342564  0.42001740  0.20158839    -0.18600
C471        C  0.38475847  0.37275619  0.17416791    -0.20400
C472        C  0.36313979  0.35965254  0.15177715    -0.12900
C473        C  0.35754648  0.37989784  0.13421684     0.03700
C474        C  0.37303258  0.41338699  0.14014393    -0.25100
H475        H  0.44308079  0.49924043  0.19425535     0.08800
H476        H  0.40487064  0.47591594  0.15580324     0.12400
H477        H  0.42872023  0.40454386  0.21438004     0.12300
H478        H  0.38914972  0.35668314  0.18698953     0.12100
H479        H  0.35161902  0.33380973  0.14767844     0.14700
H480        H  0.36857909  0.42924701  0.12707677     0.14600
N481        N  0.30883700  0.34970519  0.96459607    -0.27500
N482        N  0.32467615  0.37541277  0.98081001    -0.35300
C483        C  0.34630440  0.40072281  0.96548888     0.00900
C484        C  0.34436056  0.39041055  0.93827693     0.06900
C485        C  0.32032065  0.35785511  0.93853473    -0.06200
H486        H  0.36345782  0.42437340  0.97384220     0.07600
H487        H  0.31210675  0.34118611  0.92114229     0.08800
Cu488      Cu  0.31951820  0.37286294  0.52361202     0.44200
Cu489      Cu  0.27319749  0.30468894  0.97972048     0.42000
Cu490      Cu  0.26692163  0.29322023  0.55496262     0.43900
N491        N  0.32003630  0.36281971  0.56542230    -0.34900
N492        N  0.30244306  0.33382132  0.57687184    -0.29100
C493        C  0.31240651  0.33540073  0.60334497    -0.05200
C494        C  0.33722102  0.36695905  0.60880842     0.07000
C495        C  0.34115845  0.38350091  0.58422154     0.00800
H496        H  0.30273475  0.31494814  0.61739246     0.08400
H497        H  0.35942152  0.40836893  0.57973246     0.07500
N498        N  0.23469243  0.25837891  0.52653607    -0.36300
N499        N  0.23751026  0.26285027  0.99936883    -0.28500
C500        C  0.21340565  0.23657582  0.98674853    -0.03700
C501        C  0.19421771  0.21394425  0.50669546     0.04900
C502        C  0.20873715  0.22878814  0.53175913     0.03000
H503        H  0.21020949  0.23443396  0.96451427     0.08100
H504        H  0.20105584  0.21892725  0.55235125     0.06900
N505        N  0.70340024  0.67105172  0.96274669    -0.27500
N506        N  0.68523766  0.64373766  0.97652435    -0.35300
C507        C  0.66369851  0.62117132  0.95897519     0.00900
C508        C  0.66807590  0.63500826  0.93298869     0.06900
C509        C  0.69335743  0.66668654  0.93616195    -0.06200
H510        H  0.64487925  0.59710845  0.96507055     0.07600
H511        H  0.70330350  0.68537132  0.92041797     0.08800
Cu512      Cu  0.68612574  0.63951030  0.51942683     0.44200
Cu513      Cu  0.74023386  0.71354989  0.98099368     0.42000
Cu514      Cu  0.73894549  0.71400984  0.55601381     0.43900
N515        N  0.68427664  0.64467656  0.56211287    -0.34900
N516        N  0.70256651  0.67236893  0.57539412    -0.29100
C517        C  0.69325941  0.66867612  0.60217805    -0.05200
C518        C  0.66810208  0.63702949  0.60602124     0.07000
C519        C  0.66316791  0.62255780  0.58012625     0.00800
H520        H  0.70391461  0.68770052  0.61766995     0.08400
H521        H  0.64462521  0.59815343  0.57449811     0.07500
N522        N  0.77438642  0.75180489  0.53217476    -0.36300
N523        N  0.77513610  0.75195410  0.00487529    -0.28500
C524        C  0.80122420  0.77977358  0.99615600    -0.03700
C525        C  0.81816830  0.79793954  0.51906427     0.04900
C526        C  0.80008311  0.77937754  0.54155354     0.03000
H527        H  0.80747126  0.78589466  0.97458277     0.08100
H528        H  0.80502988  0.78530715  0.56331239     0.06900
O529        O  0.46876551  0.49610461  0.73997675    -0.73100
O530        O  0.53574471  0.54135973  0.79948398    -0.74100
O531        O  0.53634062  0.54267614  0.74030840    -0.62700
O532        O  0.46834686  0.49427631  0.79966768    -0.71100
O533        O  0.47999710  0.45465124  0.79756611    -0.70700
O534        O  0.54673440  0.50216348  0.73875106    -0.61900
O535        O  0.54725372  0.50162022  0.79829374    -0.74500
O536        O  0.47917801  0.45560420  0.73860598    -0.73200
Cu537      Cu  0.50188189  0.51997523  0.76989321     1.04600
Cu538      Cu  0.51375218  0.47719917  0.76829152     1.04300
C539        C  0.46341904  0.46901819  0.72968394     0.93100
C540        C  0.55193052  0.52853930  0.80855685     0.92200
C541        C  0.55190777  0.52967228  0.72989861     0.84400
C542        C  0.46366112  0.46669399  0.80803941     0.90600
N543        N  0.68358891  0.99918829  0.94009943    -0.27500
N544        N  0.65652740  0.99153691  0.95359347    -0.35300
C545        C  0.63492788  0.99170431  0.93574985     0.00900
C546        C  0.64915534  0.00014363  0.90971456     0.06900
C547        C  0.68010707  0.00482975  0.91332151    -0.06200
H548        H  0.61090781  0.98679963  0.94147591     0.07600
H549        H  0.69857568  0.01137794  0.89758690     0.08800
Cu550      Cu  0.65168813  0.98367388  0.99608573     0.44200
Cu551      Cu  0.72316196  0.00023814  0.95922909     0.42000
Cu552      Cu  0.72215702  0.99241048  0.53425106     0.43900
N553        N  0.65541647  0.98550757  0.53906424    -0.34900
N554        N  0.68148779  0.99056499  0.55299590    -0.29100
C555        C  0.67703942  0.99450655  0.58006812    -0.05200
C556        C  0.64654875  0.99117143  0.58326041     0.07000
C557        C  0.63359055  0.98541113  0.55685681     0.00800
H558        H  0.69475216  0.99965538  0.59619556     0.08400
H559        H  0.61060855  0.98298837  0.55080153     0.07500
N560        N  0.75841230  0.99357398  0.50868834    -0.36300
N561        N  0.75851555  0.99672088  0.98163402    -0.28500
C562        C  0.78488812  0.99733631  0.97095285    -0.03700
C563        C  0.80288823  0.99469148  0.99234525     0.04900
C564        C  0.78510980  0.99227088  0.51599297     0.03000
H565        H  0.79043616  0.99975262  0.94904754     0.08100
H566        H  0.79145807  0.99044189  0.53716506     0.06900
N567        N  0.33618890  0.03785830  0.93918009    -0.27500
N568        N  0.36516402  0.05187919  0.95099000    -0.35300
C569        C  0.38711697  0.05315718  0.93271903     0.00900
C570        C  0.37140503  0.03895634  0.90814946     0.06900
C571        C  0.33904588  0.02942020  0.91301304    -0.06200
H572        H  0.41241654  0.06221086  0.93752182     0.07600
H573        H  0.31901526  0.01696985  0.89869846     0.08800
Cu574      Cu  0.37369491  0.06398241  0.99258687     0.44200
Cu575      Cu  0.29420487  0.03033295  0.96000372     0.42000
Cu576      Cu  0.30466250  0.04056816  0.53546751     0.43900
N577        N  0.37582439  0.06224745  0.53561009    -0.34900
N578        N  0.34983633  0.05182212  0.55147144    -0.29100
C579        C  0.35796027  0.04942829  0.57777255    -0.05200
C580        C  0.39076411  0.05921405  0.57846569     0.07000
C581        C  0.40122511  0.06723015  0.55132557     0.00800
H582        H  0.34117135  0.04084067  0.59502948     0.08400
H583        H  0.42514023  0.07445591  0.54330970     0.07500
N584        N  0.26272709  0.03187973  0.51445720    -0.36300
N585        N  0.25818512  0.02734044  0.98706926    -0.28500
C586        C  0.22838252  0.02228799  0.98070183    -0.03700
C587        C  0.21263859  0.02232190  0.00506950     0.04900
C588        C  0.23570517  0.02909266  0.52601670     0.03000
H589        H  0.21886626  0.01867308  0.95983952     0.08100
H590        H  0.23287434  0.03124190  0.54803731     0.06900
O591        O  0.46601040  0.99806972  0.77651448    -0.73100
O592        O  0.51137402  0.97691472  0.71624614    -0.74100
O593        O  0.51402371  0.97982216  0.77565656    -0.62700
O594        O  0.46277161  0.99476249  0.71788528    -0.71100
O595        O  0.50087293  0.04668166  0.71491885    -0.70700
O596        O  0.55293663  0.03154554  0.77358446    -0.61900
O597        O  0.54990780  0.02878793  0.71445593    -0.74500
O598        O  0.50457025  0.04991346  0.77452851    -0.73200
Cu599      Cu  0.48732439  0.98562701  0.74659238     1.04600
Cu600      Cu  0.52843408  0.04107933  0.74423860     1.04300
C601        C  0.47834955  0.02732217  0.78527028     0.93100
C602        C  0.53772996  0.99957118  0.70570604     0.92200
C603        C  0.54103712  0.00324934  0.78434215     0.84400
C604        C  0.47340237  0.02287668  0.70725473     0.90600
N605        N  0.98753406  0.31542697  0.53732071    -0.27500
N606        N  0.97926329  0.33413700  0.52343095    -0.35300
C607        C  0.97973156  0.35664035  0.54080870     0.00900
C608        C  0.98915347  0.35225685  0.56687707     0.06900
C609        C  0.99388427  0.32587457  0.56380937    -0.06200
H610        H  0.97508741  0.37578047  0.53458696     0.07600
H611        H  0.00177591  0.31526592  0.57961708     0.08800
Cu612      Cu  0.97137372  0.33089815  0.98093743     0.44200
Cu613      Cu  0.99118341  0.27722993  0.51931927     0.42000
Cu614      Cu  0.98653357  0.27318062  0.94419381     0.43900
N615        N  0.97297797  0.32863860  0.93783876    -0.34900
N616        N  0.97981822  0.30851554  0.92437920    -0.29100
C617        C  0.98347919  0.31626523  0.89721694    -0.05200
C618        C  0.97846320  0.34236357  0.89331980     0.07000
C619        C  0.97167526  0.34934392  0.91958339     0.00800
H620        H  0.99037957  0.30447323  0.88159904     0.08400
H621        H  0.96831684  0.36948903  0.92530387     0.07500
N622        N  0.99282264  0.24047489  0.96873742    -0.36300
N623        N  0.99385147  0.24134898  0.49607175    -0.28500
C624        C  0.99728190  0.21649398  0.50540790    -0.03700
C625        C  0.99874401  0.19911782  0.98289859     0.04900
C626        C  0.99539961  0.21492038  0.95999603     0.03000
H627        H  0.99923409  0.21194986  0.52708243     0.08100
H628        H  0.99436305  0.20811056  0.93844510     0.06900
N629        N  0.04213462  0.70818301  0.54158823    -0.27500
N630        N  0.05067698  0.68950139  0.52783793    -0.35300
C631        C  0.05340244  0.66939916  0.54584537     0.00900
C632        C  0.04574109  0.67534719  0.57211845     0.06900
C633        C  0.03868639  0.70005660  0.56859492    -0.06200
H634        H  0.05834344  0.65032026  0.53995958     0.07600
H635        H  0.03065650  0.71068418  0.58437665     0.08800
Cu636      Cu  0.05274885  0.68807715  0.48476712     0.44200
Cu637      Cu  0.03355704  0.74266895  0.52304283     0.42000
Cu638      Cu  0.02894142  0.73883817  0.94823725     0.43900
N639        N  0.04483966  0.68543008  0.94190916    -0.34900
N640        N  0.03509450  0.70341042  0.92882455    -0.29100
C641        C  0.03000152  0.69461921  0.90194147    -0.05200
C642        C  0.03714458  0.67004088  0.89777941     0.07000
C643        C  0.04653175  0.66490862  0.92359937     0.00800
H644        H  0.02164481  0.70532373  0.88661135     0.08400
H645        H  0.05293741  0.64674965  0.92892963     0.07500
N646        N  0.02642509  0.77413260  0.97154357    -0.36300
N647        N  0.02788044  0.77570540  0.49888711    -0.28500
C648        C  0.02626155  0.80191046  0.50727801    -0.03700
C649        C  0.02402823  0.81787303  0.48400389     0.04900
C650        C  0.02404562  0.79928201  0.96178969     0.03000
H651        H  0.02743828  0.80913257  0.52872810     0.08100
H652        H  0.02246646  0.80357378  0.93999720     0.06900
O653        O  0.02904245  0.48134421  0.76290445    -0.73100
O654        O  0.05517316  0.55173772  0.70515247    -0.74100
O655        O  0.05254851  0.54951407  0.76471665    -0.62700
O656        O  0.03172969  0.48374140  0.70350382    -0.71100
O657        O  0.98141638  0.47495799  0.70224159    -0.70700
O658        O  0.00227310  0.54081657  0.76298304    -0.61900
O659        O  0.00471511  0.54256240  0.70424323    -0.74500
O660        O  0.97885453  0.47293634  0.76202115    -0.73200
Cu661      Cu  0.04390464  0.51691927  0.73414376     1.04600
Cu662      Cu  0.99007437  0.50740255  0.73284890     1.04300
C663        C  0.99984591  0.46642870  0.77195894     0.93100
C664        C  0.03391770  0.55795464  0.69533073     0.92200
C665        C  0.03069227  0.55547055  0.77357073     0.84400
C666        C  0.00336437  0.46951867  0.69273136     0.90600
C667        C  0.03453174  0.03635806  0.50359036     0.02100
C668        C  0.03709228  0.00801465  0.50142689     0.02100
C669        C  0.00863974  0.97699809  0.50149180     0.02100
C670        C  0.97759041  0.97423687  0.50204347     0.02100
C671        C  0.97499857  0.00264507  0.50335319     0.02100
C672        C  0.00351120  0.03378174  0.50391785     0.02100
C673        C  0.02266449  0.84842803  0.48283689    -0.05400
C674        C  0.02837569  0.86536597  0.95760425    -0.05400
C675        C  0.02696175  0.89398381  0.95615930    -0.23500
C676        C  0.02007822  0.90646149  0.97991079     0.18700
C677        C  0.01482204  0.88998208  0.50558719     0.15900
C678        C  0.01627178  0.86120692  0.50684112    -0.18600
C679        C  0.00852723  0.90275167  0.52951758    -0.20400
C680        C  0.00701116  0.93129340  0.52806006    -0.12900
C681        C  0.01130893  0.94725519  0.50266075     0.03700
C682        C  0.01823977  0.93502848  0.97854633    -0.25100
H683        H  0.03399566  0.85663122  0.93885406     0.08800
H684        H  0.03123818  0.90634186  0.93643567     0.12400
H685        H  0.01211700  0.84872073  0.52647053     0.12300
H686        H  0.00481762  0.89070626  0.54933703     0.12100
H687        H  0.00229132  0.94092435  0.54676239     0.12600
H688        H  0.02199574  0.94763711  0.95899785     0.14600
C689        C  0.03362540  0.65174822  0.87186427    -0.05400
C690        C  0.00998344  0.64714602  0.85214173    -0.05400
C691        C  0.00516530  0.62803187  0.82854992    -0.23500
C692        C  0.02424974  0.61358024  0.82407115     0.18700
C693        C  0.04897607  0.61918250  0.84321964     0.15900
C694        C  0.05330675  0.63796434  0.86707757    -0.18600
C695        C  0.06865639  0.60549400  0.83839399    -0.20400
C696        C  0.06333204  0.58566769  0.81523271    -0.12900
C697        C  0.03796360  0.57879245  0.79666055     0.03700
C698        C  0.01872106  0.59321646  0.80105008    -0.25100
H699        H  0.99450436  0.65749597  0.85537475     0.08800
H700        H  0.98625692  0.62422654  0.81399791     0.12400
H701        H  0.07196751  0.64181656  0.88193289     0.12300
H702        H  0.08789407  0.60975542  0.85273688     0.12100
H703        H  0.07847446  0.57487876  0.81231759     0.12600
H704        H  0.99930908  0.58839712  0.78669272     0.14600
C705        C  0.04266095  0.58234355  0.67295886    -0.05400
C706        C  0.07079615  0.59236048  0.65692167    -0.05400
C707        C  0.07744467  0.61305414  0.63419721    -0.23500
C708        C  0.05628941  0.62445715  0.62729795     0.18700
C709        C  0.02864591  0.61559627  0.64398617     0.15900
C710        C  0.02189921  0.59446589  0.66650170    -0.18600
C711        C  0.00792385  0.62765582  0.63765049    -0.20400
C712        C  0.01419507  0.64788762  0.61474675    -0.12900
C713        C  0.04089673  0.65590330  0.59742282     0.03700
C714        C  0.06200355  0.64420857  0.60386125    -0.25100
H715        H  0.08719212  0.58340873  0.66143712     0.08800
H716        H  0.09891645  0.61980491  0.62181894     0.12400
H717        H  0.00027869  0.58721648  0.67884124     0.12300
H718        H  0.98670156  0.62122580  0.65027923     0.12100
H719        H  0.99753129  0.65646320  0.61005568     0.12600
H720        H  0.08281312  0.65053621  0.59068507     0.14600
C721        C  0.00187271  0.16932255  0.98292146    -0.05400
C722        C  0.01002786  0.15901185  0.95832596    -0.05400
C723        C  0.01214251  0.13070375  0.95768737    -0.23500
C724        C  0.00599634  0.11182350  0.98160585     0.18700
C725        C  0.99765509  0.12152273  0.50647567     0.15900
C726        C  0.99566827  0.15016849  0.50702388    -0.18600
C727        C  0.99131155  0.10237153  0.53036230    -0.20400
C728        C  0.99297362  0.07376182  0.52947685    -0.12900
C729        C  0.00108863  0.06385456  0.50476456     0.03700
C730        C  0.00752649  0.08301341  0.98090516    -0.25100
H731        H  0.01495894  0.17289242  0.93941150     0.08800
H732        H  0.01842297  0.12347653  0.93837692     0.12400
H733        H  0.98905357  0.15740228  0.52614315     0.12300
H734        H  0.98500493  0.10948317  0.54971083     0.12100
H735        H  0.98808739  0.05937172  0.54811300     0.12600
H736        H  0.01362603  0.07527856  0.96175949     0.14600
C737        C  0.99611974  0.44750469  0.66851502    -0.05400
C738        C  0.97081088  0.44186880  0.65025161    -0.05400
C739        C  0.96470244  0.42257582  0.62655110    -0.23500
C740        C  0.98340332  0.40798585  0.62083716     0.18700
C741        C  0.00850264  0.41290082  0.63932477     0.15900
C742        C  0.01500308  0.43297020  0.66280288    -0.18600
C743        C  0.02657996  0.39754075  0.63403763    -0.20400
C744        C  0.01986095  0.37749028  0.61075755    -0.12900
C745        C  0.99541502  0.37291311  0.59192369     0.03700
C746        C  0.97735066  0.38845215  0.59705752    -0.25100
H747        H  0.95609085  0.45297780  0.65399421     0.08800
H748        H  0.94529080  0.41903452  0.61270231     0.12400
H749        H  0.03452947  0.43701913  0.67674400     0.12300
H750        H  0.04585969  0.40092150  0.64797818     0.12100
H751        H  0.03428710  0.36603848  0.60718777     0.12600
H752        H  0.95823449  0.38488499  0.58282312     0.14600
C753        C  0.98417044  0.36198784  0.86777885    -0.05400
C754        C  0.00816909  0.36581824  0.84867119    -0.05400
C755        C  0.01587841  0.38673187  0.82596008    -0.23500
C756        C  0.99928414  0.40377296  0.82156753     0.18700
C757        C  0.97411565  0.39902291  0.83996314     0.15900
C758        C  0.96698080  0.37849171  0.86309767    -0.18600
C759        C  0.95680185  0.41522926  0.83508368    -0.20400
C760        C  0.96469640  0.43636219  0.81253564    -0.12900
C761        C  0.99043548  0.44222691  0.79465165     0.03700
C762        C  0.00759964  0.42567495  0.79927892    -0.25100
H763        H  0.02185872  0.35353281  0.85183370     0.08800
H764        H  0.03507264  0.38983269  0.81199032     0.12400
H765        H  0.94815581  0.37544223  0.87750879     0.12300
H766        H  0.93728856  0.41175226  0.84882880     0.12100
H767        H  0.95116554  0.44884835  0.80951843     0.12600
H768        H  0.02732066  0.42976420  0.78551807     0.14600
C769        C  0.17937610  0.01776412  0.00859284    -0.05400
C770        C  0.16570485  0.01329954  0.53534938    -0.05400
C771        C  0.13485447  0.00952633  0.53919382    -0.23500
C772        C  0.11747164  0.01157058  0.51664128     0.18700
C773        C  0.13118291  0.01695275  0.98969256     0.15900
C774        C  0.16214249  0.02036308  0.98592880    -0.18600
C775        C  0.11428894  0.02019456  0.96725244    -0.20400
C776        C  0.08384136  0.01734313  0.97126744    -0.12900
C777        C  0.06959958  0.01103160  0.99770037     0.03700
C778        C  0.08661948  0.00835124  0.52046930    -0.25100
H779        H  0.17821290  0.01146085  0.55333078     0.08800
H780        H  0.12465023  0.00514791  0.55990148     0.12400
H781        H  0.17295575  0.02560524  0.96544956     0.12300
H782        H  0.12469657  0.02511200  0.94661288     0.12100
H783        H  0.07125911  0.02003644  0.95369314     0.12600
H784        H  0.07593586  0.00410499  0.54099607     0.14600
C785        C  0.38609349  0.03306163  0.88323601    -0.05400
C786        C  0.36794312  0.00539733  0.86663960    -0.05400
C787        C  0.38236905  0.99876061  0.84415197    -0.23500
C788        C  0.41508178  0.01998773  0.83755104     0.18700
C789        C  0.43334407  0.04835382  0.85365528     0.15900
C790        C  0.41885194  0.05451904  0.87653450    -0.18600
C791        C  0.46582395  0.06999104  0.84665610    -0.20400
C792        C  0.48017958  0.06344702  0.82407908    -0.12900
C793        C  0.46250068  0.03491604  0.80830409     0.03700
C794        C  0.42984634  0.01328544  0.81518979    -0.25100
H795        H  0.34278298  0.98840082  0.87149719     0.08800
H796        H  0.36796196  0.97694903  0.83198703     0.12400
H797        H  0.43301489  0.07611984  0.88902584     0.12300
H798        H  0.48016489  0.09193142  0.85869427     0.12100
H799        H  0.50537702  0.08043989  0.81929915     0.12600
H800        H  0.41587193  0.99131204  0.80308275     0.14600
C801        C  0.45342736  0.02723640  0.68593932    -0.05400
C802        C  0.42016812  0.00413426  0.68370988    -0.05400
C803        C  0.40103283  0.00671677  0.66309356    -0.23500
C804        C  0.41481270  0.03218404  0.64390281     0.18700
C805        C  0.44821957  0.05563917  0.64582935     0.15900
C806        C  0.46722652  0.05331275  0.66709593    -0.18600
C807        C  0.46213023  0.08050718  0.62601530    -0.20400
C808        C  0.44333931  0.08172236  0.60426047    -0.12900
C809        C  0.41011300  0.05860666  0.60226976     0.03700
C810        C  0.39589439  0.03413260  0.62245053    -0.25100
H811        H  0.40884914  0.98388175  0.69797417     0.08800
H812        H  0.37552125  0.98845226  0.66190005     0.12400
H813        H  0.49287683  0.07113496  0.66841446     0.12300
H814        H  0.48767714  0.09868249  0.62704516     0.12100
H815        H  0.45477328  0.10085688  0.58898132     0.12600
H816        H  0.37038855  0.01591040  0.62087869     0.14600
C817        C  0.94239276  0.99959240  0.00567497    -0.05400
C818        C  0.92522086  0.98974547  0.53075345    -0.05400
C819        C  0.89430649  0.98620843  0.53313443    -0.23500
C820        C  0.87993024  0.99240925  0.51034442     0.18700
C821        C  0.89688403  0.00179282  0.98492081     0.15900
C822        C  0.92798460  0.00534898  0.98268236    -0.18600
C823        C  0.88244318  0.00761433  0.96208703    -0.20400
C824        C  0.85189558  0.00481629  0.96454817    -0.12900
C825        C  0.83489533  0.99611977  0.98992619     0.03700
C826        C  0.84907354  0.98958475  0.51266046    -0.25100
H827        H  0.93593812  0.98494438  0.54859931     0.08800
H828        H  0.88171747  0.97877434  0.55283767     0.12400
H829        H  0.94099994  0.01252047  0.96313958     0.12300
H830        H  0.89493909  0.01469410  0.94231961     0.12100
H831        H  0.84199532  0.01010703  0.94647202     0.12600
H832        H  0.83632514  0.98242725  0.53229418     0.14600
C833        C  0.55744401  0.99760762  0.80796521    -0.05400
C834        C  0.53865052  0.97367743  0.82763024    -0.05400
C835        C  0.55291961  0.96942034  0.85130148    -0.23500
C836        C  0.58643230  0.98861221  0.85556957     0.18700
C837        C  0.60588493  0.01195518  0.83547261     0.15900
C838        C  0.59121241  0.01664457  0.81193403    -0.18600
C839        C  0.63959610  0.03032758  0.83946427    -0.20400
C840        C  0.65375157  0.02599617  0.86331572    -0.12900
C841        C  0.63441890  0.00367912  0.88384477     0.03700
C842        C  0.60072546  0.98493094  0.87970862    -0.25100
H843        H  0.51259703  0.95883165  0.82513341     0.08800
H844        H  0.53767501  0.95126808  0.86638555     0.12400
H845        H  0.60595973  0.03498718  0.79678447     0.12300
H846        H  0.65498723  0.04815371  0.82423059     0.12100
H847        H  0.67977149  0.04072231  0.86603326     0.12600
H848        H  0.58563142  0.96724768  0.89517020     0.14600
C849        C  0.63170869  0.99563082  0.60864659    -0.05400
C850        C  0.65015576  0.02161381  0.62678377    -0.05400
C851        C  0.63549660  0.02750180  0.64953384    -0.23500
C852        C  0.60228424  0.00700307  0.65487861     0.18700
C853        C  0.58381233  0.98002677  0.63733114     0.15900
C854        C  0.59852478  0.97482648  0.61408934    -0.18600
C855        C  0.55087911  0.95890285  0.64319856    -0.20400
C856        C  0.53619219  0.96477920  0.66591176    -0.12900
C857        C  0.55398823  0.99220001  0.68288867     0.03700
C858        C  0.58717658  0.01314201  0.67731038    -0.25100
H859        H  0.67570603  0.03800531  0.62281431     0.08800
H860        H  0.65008451  0.04819211  0.66284138     0.12400
H861        H  0.58423225  0.95457606  0.60024923     0.12300
H862        H  0.53641487  0.93795439  0.63010866     0.12100
H863        H  0.51062822  0.94831542  0.66975459     0.12600
H864        H  0.60124929  0.03418304  0.69043604     0.14600
C865        C  0.84879863  0.83028711  0.51988902    -0.05400
C866        C  0.86451477  0.84317240  0.54537643    -0.05400
C867        C  0.89270794  0.87361779  0.54681846    -0.23500
C868        C  0.90607146  0.89208860  0.52282052     0.18700
C869        C  0.89122314  0.87956245  0.99689167     0.15900
C870        C  0.86282606  0.84868147  0.99559876    -0.18600
C871        C  0.90551636  0.89767376  0.97273447    -0.20400
C872        C  0.93356175  0.92842791  0.97441209    -0.12900
C873        C  0.94769905  0.94149312  0.50032660     0.03700
C874        C  0.93415995  0.92296672  0.52436920    -0.25100
H875        H  0.85516247  0.82979786  0.56446128     0.08800
H876        H  0.90403037  0.88277614  0.56682201     0.12400
H877        H  0.85186508  0.83888861  0.97562274     0.12300
H878        H  0.89499199  0.88808926  0.95256808     0.12100
H879        H  0.94422780  0.94202685  0.95557952     0.12600
H880        H  0.94549369  0.93272055  0.54426545     0.14600
C881        C  0.57560951  0.54470406  0.83147223    -0.05400
C882        C  0.58873764  0.52812788  0.84563494    -0.05400
C883        C  0.60952526  0.54251146  0.86827440    -0.23500
C884        C  0.61795544  0.57395086  0.87702979     0.18700
C885        C  0.60568386  0.59127309  0.86249344     0.15900
C886        C  0.58440307  0.57646611  0.84002805    -0.18600
C887        C  0.61484513  0.62308390  0.87075217    -0.20400
C888        C  0.63585850  0.63754361  0.89323000    -0.12900
C889        C  0.64742914  0.62020071  0.90826819     0.03700
C890        C  0.63832611  0.58833145  0.90011000    -0.25100
H891        H  0.58242134  0.50370342  0.83955543     0.08800
H892        H  0.61888782  0.52895475  0.87902573     0.12400
H893        H  0.57468139  0.58969588  0.82924348     0.12300
H894        H  0.60575459  0.63678103  0.85983613     0.12100
H895        H  0.64242744  0.66203447  0.89935239     0.12600
H896        H  0.64736332  0.57491801  0.91157403     0.14600
C897        C  0.64900045  0.62234890  0.63163299    -0.05400
C898        C  0.64378732  0.64155960  0.65085474    -0.05400
C899        C  0.62419288  0.62747429  0.67420876    -0.23500
C900        C  0.60988618  0.59396699  0.67904771     0.18700
C901        C  0.61600086  0.57464056  0.66038986     0.15900
C902        C  0.63515077  0.58885076  0.63667067    -0.18600
C903        C  0.60258040  0.54134793  0.66562920    -0.20400
C904        C  0.58263991  0.52714802  0.68871860    -0.12900
C905        C  0.57524426  0.54579513  0.70683063     0.03700
C906        C  0.58928151  0.57938269  0.70198727    -0.25100
H907        H  0.65411727  0.66738760  0.64741219     0.08800
H908        H  0.62001045  0.64275472  0.68835660     0.12400
H909        H  0.63938291  0.57387124  0.62219011     0.12300
H910        H  0.60722385  0.52619579  0.65170524     0.12100
H911        H  0.57218898  0.50125860  0.69194267     0.12600
H912        H  0.58408099  0.59410094  0.71596473     0.14600
C913        C  0.16487603  0.18119363  0.50179213    -0.05400
C914        C  0.15392027  0.17054239  0.97456574    -0.05400
C915        C  0.12656083  0.14015958  0.96949088    -0.23500
C916        C  0.10931476  0.11951680  0.99148863     0.18700
C917        C  0.12005382  0.12945930  0.51895134     0.15900
C918        C  0.14773842  0.16014289  0.52395358    -0.18600
C919        C  0.10284842  0.10853863  0.54095666    -0.20400
C920        C  0.07519254  0.07833336  0.53575165    -0.12900
C921        C  0.06426555  0.06843958  0.50851659     0.03700
C922        C  0.08163357  0.08899116  0.98641915    -0.25100
H923        H  0.16636232  0.18558546  0.95687890     0.08800
H924        H  0.11885215  0.13283760  0.94826491     0.12400
H925        H  0.15575402  0.16750514  0.54508979     0.12300
H926        H  0.11068383  0.11558943  0.56219365     0.12100
H927        H  0.06215333  0.06260357  0.55301129     0.12600
H928        H  0.07345075  0.08117906  0.96535478     0.14600
C929        C  0.36557729  0.40930406  0.91475164    -0.05400
C930        C  0.37783303  0.44299219  0.91277646    -0.05400
C931        C  0.39838423  0.46094404  0.89086508    -0.23500
C932        C  0.40768602  0.44566386  0.87084890     0.18700
C933        C  0.39577280  0.41184785  0.87292328     0.15900
C934        C  0.37448975  0.39387405  0.89454041    -0.18600
C935        C  0.40574725  0.39658684  0.85359678    -0.20400
C936        C  0.42750946  0.41457412  0.83254501    -0.12900
C937        C  0.43945486  0.44817089  0.82999562     0.03700
C938        C  0.42911446  0.46357580  0.84913424    -0.25100
H939        H  0.37126121  0.45540509  0.92808558     0.08800
H940        H  0.40731011  0.48684210  0.88977543     0.12400
H941        H  0.36562266  0.36800848  0.89608656     0.12300
H942        H  0.39701080  0.37074003  0.85494609     0.12100
H943        H  0.43499725  0.40206358  0.81813047     0.12600
H944        H  0.43842035  0.48952667  0.84761944     0.14600
C945        C  0.43934948  0.45384785  0.70689574    -0.05400
C946        C  0.43199996  0.47351310  0.69022509    -0.05400
C947        C  0.41020166  0.46024213  0.66816130    -0.23500
C948        C  0.39482403  0.42685268  0.66247508     0.18700
C949        C  0.40124181  0.40651270  0.67941354     0.15900
C950        C  0.42380398  0.42018692  0.70134690    -0.18600
C951        C  0.38504072  0.37293329  0.67395944    -0.20400
C952        C  0.36333448  0.35983287  0.65162354    -0.12900
C953        C  0.35775541  0.38009217  0.63406917     0.03700
C954        C  0.37338856  0.41360573  0.63992468    -0.25100
H955        H  0.44364110  0.49945400  0.69393382     0.08800
H956        H  0.40546666  0.47616996  0.65545949     0.12400
H957        H  0.42902704  0.40468966  0.71417643     0.12300
H958        H  0.38939624  0.35684136  0.68678822     0.12100
H959        H  0.35171673  0.33397427  0.64756946     0.14700
H960        H  0.36896298  0.42948369  0.62685555     0.14600
loop_ 
_geom_bond_atom_site_label_1 
_geom_bond_atom_site_label_2 
_geom_bond_distance 
_geom_bond_site_symmetry_2 
_ccdc_geom_bond_type 
N1            N2   1.321       .  A
N1            C5   1.348       .  A
N1           Cu9   2.087       .  S
N2            C3   1.347       .  A
N2         Cu488   2.076       .  S
C3            C4   1.386       .  A
C3            H6   1.082       .  S
C4            C5   1.389       .  A
C4          C449   1.485       .  S
C5            H7   1.082       .  S
Cu8          N11   2.077       .  S
Cu8         N482   2.076   1_554  S
Cu9          N19   2.087       .  S
Cu10         N12   2.102       .  S
Cu10         N18   2.101       .  S
N11          N12   1.323       .  A
N11          C15   1.344       .  A
N12          C13   1.351       .  A
C13          C14   1.391       .  A
C13          H16   1.082       .  S
C14          C15   1.384       .  A
C14         C473   1.489       .  S
C15          H17   1.082       .  S
N18         N499   1.323   1_554  A
N18          C22   1.351       .  A
N19         N498   1.323       .  A
N19          C20   1.345       .  A
C20         C501   1.390       .  A
C20          H23   1.080       .  S
C21          C22   1.394       .  A
C21         C500   1.390   1_554  A
C21         C433   1.499       .  S
C22          H24   1.081       .  S
N25          N26   1.324       .  A
N25          C29   1.348       .  A
N25         Cu33   2.092       .  S
N26          C27   1.347       .  A
N26        Cu512   2.079       .  S
C27          C28   1.383       .  A
C27          H30   1.082       .  S
C28          C29   1.386       .  A
C28         C409   1.479       .  S
C29          H31   1.082       .  S
Cu32         N35   2.078       .  S
Cu32        N506   2.078   1_554  S
Cu33         N43   2.092       .  S
Cu34         N36   2.088       .  S
Cu34         N42   2.089       .  S
N35          N36   1.322       .  A
N35          C39   1.346       .  A
N36          C37   1.348       .  A
C37          C38   1.388       .  A
C37          H40   1.082       .  S
C38          C39   1.386       .  A
C38         C417   1.484       .  S
C39          H41   1.082       .  S
N42         N523   1.322       .  A
N42          C46   1.345       .  A
N43         N522   1.322       .  A
N43          C44   1.350       .  A
C44         C525   1.392       .  A
C44          H47   1.081       .  S
C45          C46   1.392       .  A
C45         C524   1.392   1_554  A
C45         C385   1.498       .  S
C46          H48   1.081       .  S
O49         Cu57   2.015       .  S
O49          C59   1.279       .  A
O50         Cu57   2.007       .  S
O50          C60   1.277       .  A
O51         Cu57   2.029       .  S
O51          C61   1.280       .  A
O52         Cu57   2.036       .  S
O52          C62   1.281       .  A
O53         Cu58   1.999       .  S
O53          C62   1.277       .  A
O54         Cu58   2.009       .  S
O54          C61   1.278       .  A
O55         Cu58   2.031       .  S
O55          C60   1.282       .  A
O56         Cu58   2.029       .  S
O56          C59   1.280       .  A
Cu57        Cu58   2.369       .  S
C59         C465   1.487       .  S
C60         C401   1.488       .  S
C61         C425   1.485       .  S
C62         C457   1.486       .  S
N63          N64   1.321       .  A
N63          C67   1.347   1_565  A
N63         Cu71   2.080       .  S
N64          C65   1.346       .  A
N64         Cu70   2.075       .  S
C65          C66   1.387       .  A
C65          H68   1.082       .  S
C66          C67   1.387   1_565  A
C66         C361   1.484   1_565  S
C67          H69   1.082       .  S
Cu70        N553   2.075       .  S
Cu71         N81   2.081       .  S
Cu72         N74   2.097       .  S
Cu72         N80   2.097       .  S
N73          N74   1.324       .  A
N73          C77   1.345       .  A
N73        Cu550   2.075   1_554  S
N74          C75   1.349       .  A
C75          C76   1.388       .  A
C75          H78   1.082       .  S
C76          C77   1.382       .  A
C76         C369   1.479       .  S
C77          H79   1.082       .  S
N80         N561   1.322   1_554  A
N80          C84   1.351       .  A
N81         N560   1.322       .  A
N81          C82   1.344       .  A
C82          C83   1.389       .  A
C82          H85   1.081       .  S
C83         C564   1.394       .  A
C83         C345   1.496       .  S
C84         C563   1.394   1_554  A
C84          H86   1.081       .  S
N87          N88   1.323       .  A
N87          C91   1.350       .  A
N87         Cu95   2.101       .  S
N88          C89   1.344       .  A
N88         Cu94   2.069       .  S
C89          C90   1.382       .  A
C89          H92   1.082       .  S
C90          C91   1.390       .  A
C90         C305   1.484       .  S
C91          H93   1.082       .  S
Cu94        N577   2.069       .  S
Cu95        N105   2.101       .  S
Cu96         N98   2.087       .  S
Cu96        N104   2.088       .  S
N97          N98   1.321       .  A
N97         C101   1.345       .  A
N97        Cu574   2.069   1_554  S
N98          C99   1.348       .  A
C99         C100   1.389       .  A
C99         H102   1.082       .  S
C100        C101   1.384       .  A
C100        C329   1.483       .  S
C101        H103   1.082       .  S
N104        N585   1.323   1_554  A
N104        C108   1.345       .  A
N105        N584   1.323       .  A
N105        C106   1.351       .  A
C106        C107   1.393       .  A
C106        H109   1.081       .  S
C107        C588   1.389       .  A
C107        C289   1.498       .  S
C108        C587   1.389       .  A
C108        H110   1.081       .  S
O111       Cu119   2.014       .  S
O111        C121   1.279   1_565  A
O112       Cu119   2.023       .  S
O112        C122   1.280       .  A
O113       Cu119   2.006       .  S
O113        C123   1.278   1_565  A
O114       Cu119   1.998       .  S
O114        C124   1.277   1_565  A
O115       Cu120   2.038       .  S
O115        C124   1.282       .  A
O116       Cu120   2.028       .  S
O116        C123   1.280       .  A
O117       Cu120   2.009       .  S
O117        C122   1.278   1_545  A
O118       Cu120   2.017       .  S
O118        C121   1.279       .  A
Cu119      Cu120   2.370   1_565  S
C121        C313   1.484       .  S
C122        C377   1.483       .  S
C123        C353   1.482   1_545  S
C124        C321   1.486       .  S
N125        N126   1.323       .  A
N125        C129   1.347       .  A
N125       Cu133   2.094       .  S
N126        C127   1.348       .  A
N126       Cu612   2.084   1_554  S
C127        C128   1.387       .  A
C127        H130   1.082       .  S
C128        C129   1.388       .  A
C128        C265   1.487       .  S
C129        H131   1.082   1_655  S
Cu132       N135   2.084       .  S
Cu132       N606   2.084       .  S
Cu133       N143   2.094   1_554  S
Cu134       N136   2.093       .  S
Cu134       N142   2.093       .  S
N135        N136   1.323       .  A
N135        C139   1.347       .  A
N136        C137   1.349       .  A
C137        C138   1.389       .  A
C137        H140   1.082       .  S
C138        C139   1.386       .  A
C138        C273   1.487       .  S
C139        H141   1.082       .  S
N142        N623   1.323       .  A
N142        C146   1.347       .  A
N143        N622   1.323       .  A
N143        C144   1.350   1_556  A
C144        C625   1.391   1_554  A
C144        H147   1.081       .  S
C145        C146   1.391       .  A
C145        C624   1.391       .  A
C145        C241   1.496   1_655  S
C146        H148   1.081       .  S
N149        N150   1.323       .  A
N149        C153   1.346       .  A
N149       Cu157   2.084       .  S
N150        C151   1.347       .  A
N150       Cu156   2.081   1_554  S
C151        C152   1.385       .  A
C151        H154   1.082       .  S
C152        C153   1.385       .  A
C152        C233   1.480       .  S
C153        H155   1.082       .  S
Cu156       N639   2.081       .  S
Cu157       N167   2.084   1_554  S
Cu158       N160   2.069       .  S
Cu158       N166   2.068       .  S
N159        N160   1.322       .  A
N159        C163   1.346       .  A
N159       Cu636   2.081       .  S
N160        C161   1.345       .  A
C161        C162   1.385       .  A
C161        H164   1.082       .  S
C162        C163   1.387       .  A
C162        C209   1.481       .  S
C163        H165   1.082       .  S
N166        N647   1.321       .  A
N166        C170   1.343       .  A
N167        N646   1.321       .  A
N167        C168   1.347   1_556  A
C168        C169   1.391   1_554  A
C168        H171   1.081       .  S
C169        C650   1.386       .  A
C169        C193   1.488       .  S
C170        C649   1.386       .  A
C170        H172   1.081       .  S
O173       Cu181   2.023       .  S
O173        C183   1.279       .  A
O174       Cu181   2.025       .  S
O174        C184   1.280       .  A
O175       Cu181   2.023       .  S
O175        C185   1.280       .  A
O176       Cu181   2.019       .  S
O176        C186   1.279       .  A
O177       Cu182   2.018       .  S
O177        C186   1.280   1_655  A
O178       Cu182   2.008   1_455  S
O178        C185   1.277       .  A
O179       Cu182   2.006   1_455  S
O179        C184   1.278       .  A
O180       Cu182   2.020       .  S
O180        C183   1.280   1_655  A
Cu181      Cu182   2.370   1_455  S
C183        C281   1.486   1_455  S
C184        C225   1.484       .  S
C185        C217   1.482       .  S
C186        C257   1.486   1_455  S
C187        C188   1.416       .  A
C187        C192   1.419       .  A
C187        C441   1.490       .  S
C188        C189   1.416   1_545  A
C188        C777   1.492   1_554  S
C189        C190   1.417   1_455  A
C189        C201   1.484       .  S
C190        C191   1.418   1_565  A
C190        C393   1.494       .  S
C191        C192   1.421   1_655  A
C191        C817   1.489   1_545  S
C192        C249   1.492       .  S
C193        C198   1.407   1_556  A
C193        C674   1.408       .  A
C194        C195   1.397       .  A
C194        C673   1.408       .  A
C194        H203   1.081       .  S
C195        C196   1.400       .  A
C195        H204   1.083       .  S
C196        C202   1.405       .  A
C196        C677   1.415       .  A
C197        C199   1.402       .  A
C197        C198   1.406       .  A
C197        C676   1.415   1_554  A
C198        H205   1.083       .  S
C199        C200   1.397       .  A
C199        H206   1.083       .  S
C200        C201   1.402       .  A
C200        H207   1.083       .  S
C201        C682   1.402   1_554  A
C202        C681   1.402       .  A
C202        H208   1.084       .  S
C209        C210   1.405       .  A
C209        C214   1.405       .  A
C210        C211   1.399       .  A
C210        H219   1.083   1_455  S
C211        C212   1.403       .  A
C211        H220   1.084   1_455  S
C212        C218   1.406       .  A
C212        C213   1.414       .  A
C213        C215   1.402       .  A
C213        C214   1.404       .  A
C214        H221   1.084       .  S
C215        C216   1.398       .  A
C215        H222   1.084       .  S
C216        C217   1.405       .  A
C216        H223   1.083       .  S
C217        C218   1.408       .  A
C218        H224   1.084   1_455  S
C225        C226   1.406       .  A
C225        C230   1.407       .  A
C226        C227   1.401       .  A
C226        H235   1.083       .  S
C227        C228   1.403       .  A
C227        H236   1.084       .  S
C228        C234   1.408       .  A
C228        C229   1.414       .  A
C229        C231   1.402       .  A
C229        C230   1.405       .  A
C230        H237   1.084       .  S
C231        C232   1.397       .  A
C231        H238   1.084   1_455  S
C232        C233   1.404       .  A
C232        H239   1.083   1_455  S
C233        C234   1.407       .  A
C234        H240   1.084       .  S
C241        C242   1.408       .  A
C241        C726   1.412   1_455  A
C242        C243   1.399       .  A
C242        H251   1.082       .  S
C243        C244   1.401       .  A
C243        H252   1.084       .  S
C244        C250   1.408       .  A
C244        C725   1.414   1_455  A
C245        C247   1.406       .  A
C245        C246   1.412       .  A
C245        C724   1.414   1_654  A
C246        C721   1.412   1_654  A
C246        H253   1.083       .  S
C247        C248   1.402       .  A
C247        H254   1.083       .  S
C248        C249   1.403   1_655  A
C248        H255   1.083       .  S
C249        C730   1.405   1_554  A
C250        C729   1.405       .  A
C250        H256   1.084       .  S
C257        C258   1.407       .  A
C257        C262   1.408   1_655  A
C258        C259   1.399       .  A
C258        H267   1.083       .  S
C259        C260   1.402       .  A
C259        H268   1.084       .  S
C260        C266   1.409       .  A
C260        C261   1.414   1_655  A
C261        C263   1.403       .  A
C261        C262   1.409       .  A
C262        H269   1.084       .  S
C263        C264   1.400       .  A
C263        H270   1.084       .  S
C264        C265   1.406   1_455  A
C264        H271   1.082       .  S
C265        C266   1.408       .  A
C266        H272   1.084       .  S
C273        C274   1.406   1_655  A
C273        C278   1.408       .  A
C274        C275   1.401       .  A
C274        H283   1.083       .  S
C275        C276   1.404   1_455  A
C275        H284   1.083       .  S
C276        C282   1.410   1_655  A
C276        C277   1.414       .  A
C277        C279   1.403       .  A
C277        C278   1.408       .  A
C278        H285   1.084       .  S
C279        C280   1.399       .  A
C279        H286   1.084       .  S
C280        C281   1.406       .  A
C280        H287   1.083       .  S
C281        C282   1.408   1_655  A
C282        H288   1.084       .  S
C289        C294   1.411       .  A
C289        C770   1.409       .  A
C290        C291   1.400       .  A
C290        C769   1.409       .  A
C290        H299   1.081       .  S
C291        C292   1.401       .  A
C291        H300   1.084       .  S
C292        C298   1.410       .  A
C292        C773   1.415   1_554  A
C293        C295   1.404       .  A
C293        C294   1.412       .  A
C293        C772   1.415       .  A
C294        H301   1.083       .  S
C295        C296   1.400       .  A
C295        H302   1.083       .  S
C296        C297   1.403       .  A
C296        H303   1.083       .  S
C297        C778   1.405       .  A
C297        C668   1.492       .  S
C298        C777   1.405   1_554  A
C298        H304   1.084       .  S
C305        C306   1.405       .  A
C305        C310   1.408       .  A
C306        C307   1.400   1_545  A
C306        H315   1.083   1_545  S
C307        C308   1.403   1_565  A
C307        H316   1.083       .  S
C308        C314   1.407       .  A
C308        C309   1.413       .  A
C309        C311   1.403       .  A
C309        C310   1.406       .  A
C310        H317   1.084       .  S
C311        C312   1.399       .  A
C311        H318   1.084       .  S
C312        C313   1.406       .  A
C312        H319   1.083       .  S
C313        C314   1.408       .  A
C314        H320   1.084   1_545  S
C321        C322   1.407       .  A
C321        C326   1.408       .  A
C322        C323   1.396       .  A
C322        H331   1.083   1_545  S
C323        C324   1.400       .  A
C323        H332   1.084   1_545  S
C324        C330   1.406       .  A
C324        C325   1.415       .  A
C325        C327   1.403       .  A
C325        C326   1.410       .  A
C326        H333   1.084       .  S
C327        C328   1.400       .  A
C327        H334   1.084       .  S
C328        C329   1.406       .  A
C328        H335   1.083       .  S
C329        C330   1.405       .  A
C330        H336   1.084       .  S
C337        C342   1.403   1_565  A
C337        C818   1.404       .  A
C337        C671   1.490   1_565  S
C338        C339   1.400       .  A
C338        C817   1.404       .  A
C338        H347   1.083       .  S
C339        C340   1.404       .  A
C339        H348   1.084       .  S
C340        C346   1.411       .  A
C340        C821   1.415   1_564  A
C341        C343   1.399       .  A
C341        C342   1.408       .  A
C341        C820   1.415   1_545  A
C342        H349   1.084       .  S
C343        C344   1.398       .  A
C343        H350   1.084       .  S
C344        C345   1.410   1_545  A
C344        H351   1.080       .  S
C345        C826   1.411       .  A
C346        C825   1.410   1_554  A
C346        H352   1.083       .  S
C353        C354   1.406       .  A
C353        C358   1.408   1_565  A
C354        C355   1.396       .  A
C354        H363   1.083       .  S
C355        C356   1.401       .  A
C355        H364   1.084       .  S
C356        C362   1.405       .  A
C356        C357   1.414   1_565  A
C357        C359   1.404       .  A
C357        C358   1.410       .  A
C358        H365   1.084       .  S
C359        C360   1.401       .  A
C359        H366   1.083       .  S
C360        C361   1.406       .  A
C360        H367   1.083       .  S
C361        C362   1.405   1_545  A
C362        H368   1.084       .  S
C369        C370   1.404   1_565  A
C369        C374   1.406       .  A
C370        C371   1.400       .  A
C370        H379   1.083       .  S
C371        C372   1.404       .  A
C371        H380   1.084       .  S
C372        C378   1.406       .  A
C372        C373   1.414   1_545  A
C373        C375   1.403       .  A
C373        C374   1.406       .  A
C374        H381   1.084       .  S
C375        C376   1.399       .  A
C375        H382   1.084       .  S
C376        C377   1.405       .  A
C376        H383   1.083       .  S
C377        C378   1.408   1_565  A
C378        H384   1.084       .  S
C385        C386   1.409       .  A
C385        C870   1.413   1_554  A
C386        C387   1.397       .  A
C386        H395   1.080       .  S
C387        C388   1.399       .  A
C387        H396   1.084       .  S
C388        C394   1.407       .  A
C388        C869   1.414   1_554  A
C389        C391   1.406       .  A
C389        C390   1.413       .  A
C389        C868   1.414       .  A
C390        C865   1.413       .  A
C390        H397   1.083       .  S
C391        C392   1.403       .  A
C391        H398   1.084       .  S
C392        C873   1.404       .  A
C392        H399   1.083       .  S
C393        C394   1.403       .  A
C393        C872   1.404   1_554  A
C394        H400   1.084       .  S
C401        C402   1.406       .  A
C401        C406   1.410       .  A
C402        C403   1.400       .  A
C402        H411   1.083       .  S
C403        C404   1.403       .  A
C403        H412   1.084       .  S
C404        C410   1.408       .  A
C404        C405   1.414       .  A
C405        C407   1.404       .  A
C405        C406   1.407       .  A
C406        H413   1.084       .  S
C407        C408   1.399       .  A
C407        H414   1.084       .  S
C408        C409   1.404       .  A
C408        H415   1.083       .  S
C409        C410   1.406       .  A
C410        H416   1.084       .  S
C417        C418   1.405       .  A
C417        C422   1.406       .  A
C418        C419   1.400       .  A
C418        H427   1.083       .  S
C419        C420   1.403       .  A
C419        H428   1.083       .  S
C420        C426   1.409       .  A
C420        C421   1.414       .  A
C421        C423   1.402       .  A
C421        C422   1.407       .  A
C422        H429   1.084       .  S
C423        C424   1.398       .  A
C423        H430   1.084       .  S
C424        C425   1.407       .  A
C424        H431   1.083       .  S
C425        C426   1.408       .  A
C426        H432   1.084       .  S
C433        C438   1.412       .  A
C433        C914   1.410   1_554  A
C434        C435   1.398       .  A
C434        C913   1.410       .  A
C434        H443   1.080       .  S
C435        C436   1.399       .  A
C435        H444   1.084       .  S
C436        C442   1.409       .  A
C436        C917   1.415       .  A
C437        C439   1.404       .  A
C437        C438   1.412       .  A
C437        C916   1.415   1_554  A
C438        H445   1.083       .  S
C439        C440   1.400       .  A
C439        H446   1.084       .  S
C440        C441   1.403       .  A
C440        H447   1.083       .  S
C441        C922   1.403   1_554  A
C442        C921   1.403       .  A
C442        H448   1.084       .  S
C449        C450   1.406       .  A
C449        C454   1.405       .  A
C450        C451   1.402       .  A
C450        H459   1.083       .  S
C451        C452   1.404       .  A
C451        H460   1.084       .  S
C452        C458   1.411       .  A
C452        C453   1.415       .  A
C453        C455   1.400       .  A
C453        C454   1.406       .  A
C454        H461   1.084       .  S
C455        C456   1.396       .  A
C455        H462   1.084       .  S
C456        C457   1.407       .  A
C456        H463   1.083       .  S
C457        C458   1.409       .  A
C458        H464   1.084       .  S
C465        C466   1.406       .  A
C465        C470   1.411       .  A
C466        C467   1.397       .  A
C466        H475   1.083       .  S
C467        C468   1.401       .  A
C467        H476   1.084       .  S
C468        C474   1.406       .  A
C468        C469   1.413       .  A
C469        C471   1.405       .  A
C469        C470   1.412       .  A
C470        H477   1.084       .  S
C471        C472   1.404       .  A
C471        H478   1.083       .  S
C472        C473   1.406       .  A
C472        H479   1.083       .  S
C473        C474   1.407       .  A
C474        H480   1.084       .  S
N481        N482   1.321       .  A
N481        C485   1.348       .  A
N481       Cu489   2.086       .  S
N482        C483   1.347       .  A
C483        C484   1.386       .  A
C483        H486   1.082       .  S
C484        C485   1.389       .  A
C484        C929   1.485       .  S
C485        H487   1.082       .  S
Cu488       N491   2.076       .  S
Cu489       N499   2.087       .  S
Cu490       N492   2.103       .  S
Cu490       N498   2.103       .  S
N491        N492   1.323       .  A
N491        C495   1.344       .  A
N492        C493   1.351       .  A
C493        C494   1.392       .  A
C493        H496   1.082       .  S
C494        C495   1.384       .  A
C494        C953   1.489       .  S
C495        H497   1.082       .  S
N498        C502   1.352       .  A
N499        C500   1.344       .  A
C500        H503   1.080       .  S
C501        C502   1.395       .  A
C501        C913   1.500       .  S
C502        H504   1.081       .  S
N505        N506   1.324       .  A
N505        C509   1.348       .  A
N505       Cu513   2.091       .  S
N506        C507   1.346       .  A
C507        C508   1.383       .  A
C507        H510   1.082       .  S
C508        C509   1.386       .  A
C508        C889   1.479       .  S
C509        H511   1.082       .  S
Cu512       N515   2.079       .  S
Cu513       N523   2.091   1_556  S
Cu514       N516   2.088       .  S
Cu514       N522   2.088       .  S
N515        N516   1.322       .  A
N515        C519   1.346       .  A
N516        C517   1.348       .  A
C517        C518   1.388       .  A
C517        H520   1.082       .  S
C518        C519   1.386       .  A
C518        C897   1.484       .  S
C519        H521   1.082       .  S
N522        C526   1.345       .  A
N523        C524   1.350   1_554  A
C524        H527   1.081       .  S
C525        C526   1.391       .  A
C525        C865   1.498       .  S
C526        H528   1.081       .  S
O529       Cu537   2.015       .  S
O529        C539   1.279       .  A
O530       Cu537   2.006       .  S
O530        C540   1.277       .  A
O531       Cu537   2.029       .  S
O531        C541   1.280       .  A
O532       Cu537   2.037       .  S
O532        C542   1.281       .  A
O533       Cu538   1.999       .  S
O533        C542   1.277       .  A
O534       Cu538   2.009       .  S
O534        C541   1.278       .  A
O535       Cu538   2.031       .  S
O535        C540   1.282       .  A
O536       Cu538   2.029       .  S
O536        C539   1.280       .  A
Cu537      Cu538   2.369       .  S
C539        C945   1.487       .  S
C540        C881   1.488       .  S
C541        C905   1.485       .  S
C542        C937   1.486       .  S
N543        N544   1.321       .  A
N543        C547   1.347   1_565  A
N543       Cu551   2.078   1_565  S
N544        C545   1.345       .  A
N544       Cu550   2.075       .  S
C545        C546   1.387   1_565  A
C545        H548   1.082       .  S
C546        C547   1.387       .  A
C546        C841   1.483       .  S
C547        H549   1.082       .  S
Cu551       N561   2.078   1_545  S
Cu552       N554   2.097       .  S
Cu552       N560   2.097       .  S
N553        N554   1.324       .  A
N553        C557   1.344       .  A
N554        C555   1.349       .  A
C555        C556   1.387       .  A
C555        H558   1.082       .  S
C556        C557   1.381       .  A
C556        C849   1.479       .  S
C557        H559   1.082       .  S
N560        C564   1.351       .  A
N561        C562   1.343       .  A
C562        C563   1.388       .  A
C562        H565   1.081       .  S
C563        C825   1.496       .  S
C564        H566   1.081       .  S
N567        N568   1.323       .  A
N567        C571   1.350       .  A
N567       Cu575   2.100       .  S
N568        C569   1.344       .  A
N568       Cu574   2.069       .  S
C569        C570   1.382       .  A
C569        H572   1.082       .  S
C570        C571   1.390       .  A
C570        C785   1.484       .  S
C571        H573   1.082       .  S
Cu575       N585   2.101       .  S
Cu576       N578   2.088       .  S
Cu576       N584   2.089       .  S
N577        N578   1.321       .  A
N577        C581   1.345       .  A
N578        C579   1.348       .  A
C579        C580   1.389       .  A
C579        H582   1.082       .  S
C580        C581   1.384       .  A
C580        C809   1.483       .  S
C581        H583   1.082       .  S
N584        C588   1.345       .  A
N585        C586   1.351       .  A
C586        C587   1.393   1_556  A
C586        H589   1.081       .  S
C587        C769   1.496       .  S
C588        H590   1.081       .  S
O591       Cu599   2.013       .  S
O591        C601   1.279   1_565  A
O592       Cu599   2.022       .  S
O592        C602   1.280       .  A
O593       Cu599   2.005       .  S
O593        C603   1.278   1_565  A
O594       Cu599   1.998       .  S
O594        C604   1.277   1_565  A
O595       Cu600   2.038       .  S
O595        C604   1.282       .  A
O596       Cu600   2.027       .  S
O596        C603   1.280       .  A
O597       Cu600   2.009       .  S
O597        C602   1.278   1_545  A
O598       Cu600   2.017       .  S
O598        C601   1.279       .  A
Cu599      Cu600   2.370   1_565  S
C601        C793   1.483       .  S
C602        C857   1.483       .  S
C603        C833   1.482   1_545  S
C604        C801   1.486       .  S
N605        N606   1.323       .  A
N605        C609   1.348       .  A
N605       Cu613   2.094       .  S
N606        C607   1.348       .  A
C607        C608   1.386       .  A
C607        H610   1.082       .  S
C608        C609   1.388       .  A
C608        C745   1.487       .  S
C609        H611   1.082   1_655  S
Cu612       N615   2.084       .  S
Cu613       N623   2.094       .  S
Cu614       N616   2.095       .  S
Cu614       N622   2.095       .  S
N615        N616   1.323       .  A
N615        C619   1.347       .  A
N616        C617   1.349       .  A
C617        C618   1.389       .  A
C617        H620   1.082       .  S
C618        C619   1.386       .  A
C618        C753   1.487       .  S
C619        H621   1.082       .  S
N622        C626   1.347       .  A
N623        C624   1.350       .  A
C624        H627   1.081       .  S
C625        C626   1.391       .  A
C625        C721   1.497   1_655  S
C626        H628   1.081       .  S
N629        N630   1.323       .  A
N629        C633   1.346       .  A
N629       Cu637   2.082       .  S
N630        C631   1.347       .  A
N630       Cu636   2.081       .  S
C631        C632   1.385       .  A
C631        H634   1.082       .  S
C632        C633   1.385       .  A
C632        C713   1.479       .  S
C633        H635   1.082       .  S
Cu637       N647   2.082       .  S
Cu638       N640   2.069       .  S
Cu638       N646   2.069       .  S
N639        N640   1.322       .  A
N639        C643   1.346       .  A
N640        C641   1.345       .  A
C641        C642   1.385       .  A
C641        H644   1.082       .  S
C642        C643   1.387       .  A
C642        C689   1.481       .  S
C643        H645   1.082       .  S
N646        C650   1.343       .  A
N647        C648   1.347       .  A
C648        C649   1.390       .  A
C648        H651   1.081       .  S
C649        C673   1.487       .  S
C650        H652   1.081       .  S
O653       Cu661   2.023       .  S
O653        C663   1.279   1_455  A
O654       Cu661   2.025       .  S
O654        C664   1.280       .  A
O655       Cu661   2.023       .  S
O655        C665   1.280       .  A
O656       Cu661   2.019       .  S
O656        C666   1.279       .  A
O657       Cu662   2.019       .  S
O657        C666   1.280   1_655  A
O658       Cu662   2.009   1_455  S
O658        C665   1.278       .  A
O659       Cu662   2.006   1_455  S
O659        C664   1.278       .  A
O660       Cu662   2.020       .  S
O660        C663   1.280       .  A
Cu661      Cu662   2.370   1_455  S
C663        C761   1.487       .  S
C664        C705   1.484       .  S
C665        C697   1.482       .  S
C666        C737   1.486   1_455  S
C667        C668   1.416       .  A
C667        C672   1.420       .  A
C667        C921   1.490       .  S
C668        C669   1.416   1_545  A
C669        C670   1.417   1_455  A
C669        C681   1.483       .  S
C670        C671   1.418   1_565  A
C670        C873   1.494       .  S
C671        C672   1.421   1_655  A
C672        C729   1.491       .  S
C673        C678   1.407       .  A
C674        C675   1.397       .  A
C674        H683   1.081       .  S
C675        C676   1.400       .  A
C675        H684   1.083       .  S
C676        C682   1.406       .  A
C677        C679   1.402       .  A
C677        C678   1.405       .  A
C678        H685   1.083       .  S
C679        C680   1.396       .  A
C679        H686   1.083       .  S
C680        C681   1.402       .  A
C680        H687   1.083       .  S
C682        H688   1.084       .  S
C689        C690   1.406       .  A
C689        C694   1.405       .  A
C690        C691   1.399       .  A
C690        H699   1.083   1_455  S
C691        C692   1.403       .  A
C691        H700   1.084   1_455  S
C692        C698   1.406       .  A
C692        C693   1.414       .  A
C693        C695   1.402       .  A
C693        C694   1.404       .  A
C694        H701   1.084       .  S
C695        C696   1.398       .  A
C695        H702   1.084       .  S
C696        C697   1.405       .  A
C696        H703   1.083       .  S
C697        C698   1.408       .  A
C698        H704   1.084   1_455  S
C705        C706   1.406       .  A
C705        C710   1.407       .  A
C706        C707   1.401       .  A
C706        H715   1.083       .  S
C707        C708   1.403       .  A
C707        H716   1.084       .  S
C708        C714   1.408       .  A
C708        C709   1.414       .  A
C709        C711   1.402       .  A
C709        C710   1.405       .  A
C710        H717   1.084       .  S
C711        C712   1.397       .  A
C711        H718   1.084   1_455  S
C712        C713   1.404       .  A
C712        H719   1.083   1_455  S
C713        C714   1.407       .  A
C714        H720   1.084       .  S
C721        C722   1.408       .  A
C722        C723   1.399       .  A
C722        H731   1.082       .  S
C723        C724   1.401       .  A
C723        H732   1.084       .  S
C724        C730   1.408       .  A
C725        C727   1.406       .  A
C725        C726   1.412       .  A
C726        H733   1.083       .  S
C727        C728   1.402       .  A
C727        H734   1.083       .  S
C728        C729   1.403   1_655  A
C728        H735   1.083       .  S
C730        H736   1.084       .  S
C737        C738   1.407       .  A
C737        C742   1.408   1_655  A
C738        C739   1.399       .  A
C738        H747   1.083       .  S
C739        C740   1.403       .  A
C739        H748   1.084       .  S
C740        C746   1.409       .  A
C740        C741   1.414   1_655  A
C741        C743   1.403       .  A
C741        C742   1.409       .  A
C742        H749   1.084       .  S
C743        C744   1.400       .  A
C743        H750   1.084       .  S
C744        C745   1.406   1_455  A
C744        H751   1.083       .  S
C745        C746   1.408       .  A
C746        H752   1.084       .  S
C753        C754   1.406   1_655  A
C753        C758   1.408       .  A
C754        C755   1.401       .  A
C754        H763   1.083       .  S
C755        C756   1.403   1_455  A
C755        H764   1.083       .  S
C756        C762   1.410   1_655  A
C756        C757   1.414       .  A
C757        C759   1.403       .  A
C757        C758   1.409       .  A
C758        H765   1.084       .  S
C759        C760   1.400       .  A
C759        H766   1.084       .  S
C760        C761   1.406       .  A
C760        H767   1.083       .  S
C761        C762   1.408   1_655  A
C762        H768   1.084       .  S
C769        C774   1.410   1_554  A
C770        C771   1.400       .  A
C770        H779   1.081       .  S
C771        C772   1.401       .  A
C771        H780   1.084       .  S
C772        C778   1.410       .  A
C773        C775   1.404       .  A
C773        C774   1.411       .  A
C774        H781   1.083       .  S
C775        C776   1.400       .  A
C775        H782   1.083       .  S
C776        C777   1.403       .  A
C776        H783   1.083       .  S
C778        H784   1.084       .  S
C785        C786   1.404       .  A
C785        C790   1.408       .  A
C786        C787   1.400   1_545  A
C786        H795   1.083   1_545  S
C787        C788   1.403   1_565  A
C787        H796   1.083       .  S
C788        C794   1.406       .  A
C788        C789   1.413       .  A
C789        C791   1.403       .  A
C789        C790   1.406       .  A
C790        H797   1.084       .  S
C791        C792   1.399       .  A
C791        H798   1.084       .  S
C792        C793   1.406       .  A
C792        H799   1.083       .  S
C793        C794   1.408       .  A
C794        H800   1.084   1_545  S
C801        C802   1.408       .  A
C801        C806   1.408       .  A
C802        C803   1.396       .  A
C802        H811   1.083   1_545  S
C803        C804   1.400       .  A
C803        H812   1.084   1_545  S
C804        C810   1.406       .  A
C804        C805   1.415       .  A
C805        C807   1.403       .  A
C805        C806   1.410       .  A
C806        H813   1.084       .  S
C807        C808   1.400       .  A
C807        H814   1.084       .  S
C808        C809   1.406       .  A
C808        H815   1.083       .  S
C809        C810   1.405       .  A
C810        H816   1.084       .  S
C817        C822   1.403   1_564  A
C818        C819   1.400       .  A
C818        H827   1.083       .  S
C819        C820   1.404       .  A
C819        H828   1.084       .  S
C820        C826   1.411       .  A
C821        C823   1.399       .  A
C821        C822   1.408       .  A
C822        H829   1.084       .  S
C823        C824   1.397       .  A
C823        H830   1.084       .  S
C824        C825   1.410   1_545  A
C824        H831   1.080       .  S
C826        H832   1.083       .  S
C833        C834   1.406       .  A
C833        C838   1.408   1_565  A
C834        C835   1.396       .  A
C834        H843   1.083       .  S
C835        C836   1.400       .  A
C835        H844   1.084       .  S
C836        C842   1.404       .  A
C836        C837   1.414   1_565  A
C837        C839   1.404       .  A
C837        C838   1.410       .  A
C838        H845   1.084       .  S
C839        C840   1.401       .  A
C839        H846   1.083       .  S
C840        C841   1.406       .  A
C840        H847   1.083       .  S
C841        C842   1.405   1_545  A
C842        H848   1.084       .  S
C849        C850   1.403   1_565  A
C849        C854   1.406       .  A
C850        C851   1.400       .  A
C850        H859   1.083       .  S
C851        C852   1.404       .  A
C851        H860   1.084       .  S
C852        C858   1.406       .  A
C852        C853   1.414   1_545  A
C853        C855   1.403       .  A
C853        C854   1.406       .  A
C854        H861   1.084       .  S
C855        C856   1.399       .  A
C855        H862   1.084       .  S
C856        C857   1.405       .  A
C856        H863   1.083       .  S
C857        C858   1.408   1_565  A
C858        H864   1.084       .  S
C865        C866   1.409       .  A
C866        C867   1.397       .  A
C866        H875   1.080       .  S
C867        C868   1.399       .  A
C867        H876   1.084       .  S
C868        C874   1.407       .  A
C869        C871   1.406       .  A
C869        C870   1.413       .  A
C870        H877   1.083       .  S
C871        C872   1.403       .  A
C871        H878   1.084       .  S
C872        H879   1.083       .  S
C873        C874   1.403       .  A
C874        H880   1.084       .  S
C881        C882   1.406       .  A
C881        C886   1.410       .  A
C882        C883   1.400       .  A
C882        H891   1.083       .  S
C883        C884   1.403       .  A
C883        H892   1.084       .  S
C884        C890   1.407       .  A
C884        C885   1.414       .  A
C885        C887   1.404       .  A
C885        C886   1.407       .  A
C886        H893   1.084       .  S
C887        C888   1.399       .  A
C887        H894   1.084       .  S
C888        C889   1.404       .  A
C888        H895   1.083       .  S
C889        C890   1.406       .  A
C890        H896   1.084       .  S
C897        C898   1.405       .  A
C897        C902   1.406       .  A
C898        C899   1.400       .  A
C898        H907   1.083       .  S
C899        C900   1.403       .  A
C899        H908   1.083       .  S
C900        C906   1.409       .  A
C900        C901   1.414       .  A
C901        C903   1.402       .  A
C901        C902   1.407       .  A
C902        H909   1.084       .  S
C903        C904   1.398       .  A
C903        H910   1.084       .  S
C904        C905   1.407       .  A
C904        H911   1.083       .  S
C905        C906   1.408       .  A
C906        H912   1.084       .  S
C913        C918   1.412       .  A
C914        C915   1.398       .  A
C914        H923   1.080       .  S
C915        C916   1.399       .  A
C915        H924   1.084       .  S
C916        C922   1.408       .  A
C917        C919   1.404       .  A
C917        C918   1.412       .  A
C918        H925   1.083       .  S
C919        C920   1.400       .  A
C919        H926   1.083       .  S
C920        C921   1.403       .  A
C920        H927   1.083       .  S
C922        H928   1.084       .  S
C929        C930   1.406       .  A
C929        C934   1.405       .  A
C930        C931   1.402       .  A
C930        H939   1.083       .  S
C931        C932   1.404       .  A
C931        H940   1.084       .  S
C932        C938   1.411       .  A
C932        C933   1.415       .  A
C933        C935   1.400       .  A
C933        C934   1.406       .  A
C934        H941   1.084       .  S
C935        C936   1.396       .  A
C935        H942   1.084       .  S
C936        C937   1.407       .  A
C936        H943   1.083       .  S
C937        C938   1.409       .  A
C938        H944   1.084       .  S
C945        C946   1.406       .  A
C945        C950   1.411       .  A
C946        C947   1.397       .  A
C946        H955   1.083       .  S
C947        C948   1.401       .  A
C947        H956   1.084       .  S
C948        C954   1.406       .  A
C948        C949   1.413       .  A
C949        C951   1.405       .  A
C949        C950   1.412       .  A
C950        H957   1.084       .  S
C951        C952   1.404       .  A
C951        H958   1.083       .  S
C952        C953   1.406       .  A
C952        H959   1.083       .  S
C953        C954   1.407       .  A
C954        H960   1.084       .  S
