geometry optimzed in LAMMPS
_audit_creation_date              2020-11-30 
_audit_creation_method            'lammps2cif' 
_symmetry_space_group_name_H-M    'P1' 
_symmetry_Int_Tables_number       1 
_symmetry_cell_setting            triclinic 
loop_ 
_symmetry_equiv_pos_as_xyz 
  x,y,z 
_cell_length_a                    25.69874711 
_cell_length_b                    26.407424590172454 
_cell_length_c                    25.973893699027254 
_cell_angle_alpha                 89.67854987528922 
_cell_angle_beta                  89.48711061845829 
_cell_angle_gamma                 89.53779935919009 
loop_ 
_atom_site_label 
_atom_site_type_symbol 
_atom_site_fract_x 
_atom_site_fract_y 
_atom_site_fract_z 
_atom_site_charge 
C1          C  0.86867349  0.86800045  0.86127498    -0.02300
N2          N  0.77072659  0.93157256  0.41182992    -0.06000
N3          N  0.73275829  0.94321895  0.44515289    -0.58100
N4          N  0.82471530  0.96384662  0.29863446    -0.05600
N5          N  0.82677978  0.99528877  0.25974270    -0.60200
N6          N  0.78884460  0.92943847  0.29259492    -0.05200
N7          N  0.76559638  0.93663196  0.24851247    -0.58100
N8          N  0.80759477  0.96568216  0.41438303    -0.04900
N9          N  0.79534657  0.00110599  0.44840795    -0.60600
C10         C  0.74871411  0.98684871  0.46798093     0.96200
C11         C  0.78997250  0.97772829  0.22881471     0.96000
N12         N  0.97870963  0.93280504  0.30924507    -0.06100
N13         N  0.01714830  0.94456661  0.27703622    -0.58700
N14         N  0.92735784  0.95843808  0.42314144    -0.04300
N15         N  0.93508459  0.99326346  0.45751896    -0.59900
N16         N  0.96377465  0.92334790  0.42472278    -0.06200
N17         N  0.99769381  0.93320956  0.46028872    -0.58900
N18         N  0.94194573  0.96742889  0.30747806    -0.03900
N19         N  0.95416579  0.00321375  0.27371878    -0.60000
Mn20       Mn  0.87499445  0.96496928  0.36128497     1.18400
C21         C  0.00114903  0.98854548  0.25467170     0.98300
C22         C  0.97857069  0.97641875  0.47992096     0.99000
N23         N  0.77783048  0.80947143  0.29024608    -0.06200
N24         N  0.74072891  0.79624577  0.25765487    -0.62500
N25         N  0.81040687  0.77523623  0.40791916    -0.05000
N26         N  0.79994517  0.74085783  0.44280215    -0.63200
N27         N  0.77397353  0.81059325  0.40693567    -0.05700
N28         N  0.73761079  0.80128044  0.44136572    -0.62800
N29         N  0.81377495  0.77372568  0.29223858    -0.04600
N30         N  0.80135022  0.73563592  0.26157970    -0.63500
Mn31       Mn  0.77556812  0.87079155  0.35026796     1.10700
C32         C  0.75587913  0.75011307  0.23942979     0.99500
C33         C  0.75485238  0.75791898  0.46281298     0.99600
N34         N  0.96908435  0.80574541  0.42031349    -0.05700
N35         N  0.00373204  0.79349530  0.45582540    -0.61100
N36         N  0.93574477  0.78381365  0.29759715    -0.05000
N37         N  0.94031066  0.76229605  0.25253784    -0.57800
N38         N  0.97235151  0.81761208  0.30324214    -0.06300
N39         N  0.00291025  0.81959346  0.26276804    -0.60700
N40         N  0.93361084  0.77037562  0.41666890    -0.05300
N41         N  0.94370955  0.73327447  0.45003054    -0.57800
Mn42       Mn  0.97265921  0.86932755  0.36494575     1.20200
Mn43       Mn  0.87400236  0.77383250  0.35368589     1.10100
Cl44       Cl  0.87397519  0.86944037  0.35802494    -0.85800
C45         C  0.98714871  0.74860528  0.47493127     0.96500
C46         C  0.98229024  0.78508556  0.23150010     0.96300
N47         N  0.95780913  0.43084209  0.92085128    -0.06000
N48         N  0.99294070  0.46499238  0.92972476    -0.58100
N49         N  0.93443192  0.31776725  0.96979101    -0.05600
N50         N  0.94818259  0.28743706  0.00824488    -0.60200
N51         N  0.97008025  0.31718526  0.93334221    -0.05200
N52         N  0.00872168  0.28627376  0.94615445    -0.58100
N53         N  0.92163379  0.43109424  0.95690738    -0.04900
N54         N  0.93098749  0.46539893  0.99146239    -0.60600
C55         C  0.97511366  0.48578542  0.97343888     0.96200
C56         C  0.99465271  0.26758213  0.99299974     0.96000
N57         N  0.78058639  0.30337525  0.93004923    -0.06100
N58         N  0.75568803  0.26111239  0.93805855    -0.58700
N59         N  0.80147488  0.42413974  0.96366541    -0.04300
N60         N  0.78971579  0.45941454  0.99795218    -0.59900
N61         N  0.76408106  0.41977226  0.92980103    -0.06200
N62         N  0.72600941  0.45257260  0.94065550    -0.58900
N63         N  0.81554033  0.30982261  0.96593964    -0.03900
N64         N  0.81493624  0.27284894  0.99962057    -0.60000
Mn65       Mn  0.86784814  0.37106247  0.96541101     1.18400
C66         C  0.77805731  0.24267510  0.98110095     0.98300
C67         C  0.74294374  0.47769545  0.98291730     0.99000
N68         N  0.96479224  0.30963860  0.81501317    -0.06200
N69         N  0.99880439  0.27260024  0.81271120    -0.62500
N70         N  0.92775777  0.42080686  0.76597066    -0.05000
N71         N  0.93923731  0.45172143  0.72698776    -0.63200
N72         N  0.96369304  0.42375445  0.80146095    -0.05700
N73         N  0.00018994  0.45622481  0.78728642    -0.62800
N74         N  0.92832493  0.30459542  0.78038143    -0.04600
N75         N  0.93616138  0.26312596  0.75409806    -0.63500
Mn76       Mn  0.96539895  0.37060515  0.86738781     1.10700
C77         C  0.97984014  0.24375487  0.77515336     0.99500
C78         C  0.98460008  0.47396756  0.74081134     0.99600
N79         N  0.76795701  0.41469802  0.80944025    -0.05700
N80         N  0.73545390  0.45286164  0.80442108    -0.61100
N81         N  0.80625645  0.30016248  0.77163385    -0.05000
N82         N  0.79531671  0.26816183  0.73400848    -0.57800
N83         N  0.76994156  0.29853452  0.80763830    -0.06300
N84         N  0.73368166  0.26516590  0.79475360    -0.60700
N85         N  0.80506709  0.41661221  0.77428920    -0.05300
N86         N  0.79916787  0.45664066  0.74489246    -0.57800
Mn87       Mn  0.76828574  0.35852432  0.86948943     1.20200
Mn88       Mn  0.86688848  0.36051689  0.77103462     1.10100
Cl89       Cl  0.86692125  0.36523787  0.86812420    -0.85800
C90         C  0.75624279  0.47887986  0.76482101     0.96500
C91         C  0.75037675  0.24555081  0.74896635     0.96300
N92         N  0.41037739  0.76724315  0.93247787    -0.06000
N93         N  0.44159478  0.72849647  0.94402287    -0.58100
N94         N  0.29829309  0.82265293  0.96504968    -0.05600
N95         N  0.25892078  0.82357156  0.99734362    -0.60200
N96         N  0.29139717  0.78918763  0.92870417    -0.05200
N97         N  0.24652171  0.76707133  0.93490162    -0.58100
N98         N  0.41537380  0.80311933  0.96683759    -0.04900
N99         N  0.44929918  0.78942022  0.00249407    -0.60600
C100        C  0.46592226  0.74277636  0.98794364     0.96200
C101        C  0.22703926  0.78863339  0.97799205     0.96000
N102        N  0.31376013  0.97123318  0.93206015    -0.06100
N103        N  0.28206830  0.00943539  0.94371483    -0.58700
N104        N  0.42851238  0.92021632  0.95825087    -0.04300
N105        N  0.46436097  0.92854455  0.99241033    -0.59900
N106        N  0.43027058  0.95436308  0.92135467    -0.06200
N107        N  0.46722028  0.98682701  0.92891825    -0.58900
N108        N  0.31213543  0.93662854  0.96840809    -0.03900
N109        N  0.27951719  0.95029669  0.00556163    -0.60000
Mn110      Mn  0.36411044  0.87032141  0.96621839     1.18400
C111        C  0.26043062  0.99545803  0.98940726     0.98300
C112        C  0.48770348  0.96973597  0.97284279     0.99000
N113        N  0.29092648  0.77695177  0.80795212    -0.06200
N114        N  0.25678984  0.74165523  0.79536187    -0.62500
N115        N  0.41417784  0.80569667  0.77652346    -0.05000
N116        N  0.45630885  0.79740925  0.74890782    -0.63200
N117        N  0.40935161  0.77059613  0.81242896    -0.05700
N118        N  0.44740286  0.73739776  0.80983364    -0.62800
N119        N  0.29492618  0.81068917  0.77072433    -0.04600
N120        N  0.26386427  0.79854606  0.73213422    -0.63500
Mn121      Mn  0.34991231  0.77401149  0.87063243     1.10700
C122        C  0.23956316  0.75556846  0.74796868     0.99500
C123        C  0.47659319  0.75532664  0.77088940     0.99600
N124        N  0.42626606  0.96008094  0.80259508    -0.05700
N125        N  0.46071212  0.99489687  0.78939752    -0.61100
N126        N  0.30267551  0.93025338  0.77958230    -0.05000
N127        N  0.25916716  0.93879464  0.75507331    -0.57800
N128        N  0.30909167  0.96510204  0.81476180    -0.06300
N129        N  0.27111259  0.99818328  0.81505851    -0.60700
N130        N  0.42219039  0.92613371  0.76611067    -0.05300
N131        N  0.45386159  0.93786826  0.72703650    -0.57800
Mn132      Mn  0.37027436  0.96389087  0.86740934     1.20200
Mn133      Mn  0.35852113  0.86823601  0.77072731     1.10100
Cl134      Cl  0.36098789  0.86892907  0.86845669    -0.85800
C135        C  0.47831752  0.98084472  0.74225646     0.96500
C136        C  0.24021276  0.98093484  0.77820601     0.96300
C137        C  0.37179356  0.37021783  0.87085058    -0.02300
C138        C  0.37280361  0.87403152  0.36840957    -0.02300
C139        C  0.87388894  0.37208939  0.36483695    -0.02300
N140        N  0.20797592  0.06321495  0.68602957    -0.06000
N141        N  0.23355674  0.05617002  0.72883543    -0.58100
N142        N  0.18614887  0.02417331  0.56542683    -0.05600
N143        N  0.19895113  0.98828319  0.53207758    -0.60200
N144        N  0.22313247  0.05808768  0.56775873    -0.05200
N145        N  0.26158872  0.04609551  0.53546317    -0.58100
N146        N  0.17195673  0.02871928  0.68168519    -0.04900
N147        N  0.17187660  0.99738718  0.72068264    -0.60600
C148        C  0.21013207  0.01517005  0.74973095     0.96200
C149        C  0.24607899  0.00235619  0.51311302     0.96000
N150        N  0.02822877  0.06539363  0.55897857    -0.06100
N151        N  0.99082674  0.05234879  0.52820862    -0.58700
N152        N  0.05461714  0.02556678  0.67614016    -0.04300
N153        N  0.04259881  0.99005615  0.71027817    -0.59900
N154        N  0.01800533  0.06039854  0.67445469    -0.06200
N155        N  0.97980713  0.04891496  0.70699604    -0.58900
N156        N  0.06474496  0.03028307  0.56046439    -0.03900
N157        N  0.05347515  0.99234259  0.53079309    -0.60000
Mn158      Mn  0.11978310  0.02609742  0.62036476     1.18400
C159        C  0.00775330  0.00716232  0.51157981     0.98300
C160        C  0.99590864  0.00510846  0.72962168     0.99000
N161        N  0.21961730  0.17579400  0.56659412    -0.06200
N162        N  0.25343216  0.18000822  0.52879736    -0.62500
N163        N  0.18318081  0.21821217  0.68159089    -0.05000
N164        N  0.19545044  0.25536290  0.71356497    -0.63200
N165        N  0.21877473  0.18218427  0.68351345    -0.05700
N166        N  0.25589217  0.19437860  0.71632923    -0.62800
N167        N  0.18284441  0.21056604  0.56314947    -0.04600
N168        N  0.19034027  0.23886026  0.52227002    -0.63500
Mn169      Mn  0.21944408  0.11967396  0.62640337     1.10700
C170        C  0.23390844  0.21875557  0.50125416     0.99500
C171        C  0.24061355  0.23975668  0.73574992     0.99600
N172        N  0.02438104  0.17642782  0.67572657    -0.05700
N173        N  0.99322524  0.17741568  0.71570998    -0.61100
N174        N  0.05944582  0.21942950  0.55976620    -0.05000
N175        N  0.04776196  0.25618602  0.52646517    -0.57800
N176        N  0.02348577  0.18428542  0.55866354    -0.06300
N177        N  0.98683362  0.19654980  0.52507660    -0.60700
N178        N  0.06067984  0.21092130  0.67895301    -0.05300
N179        N  0.05512352  0.23622038  0.72192244    -0.57800
Mn180      Mn  0.02214069  0.12213552  0.61642376     1.20200
Mn181      Mn  0.12141038  0.21719489  0.62073205     1.10100
Cl182      Cl  0.12079499  0.12153291  0.62056484    -0.85800
C183        C  0.01318813  0.21438570  0.74423289     0.96500
C184        C  0.00266689  0.24110352  0.50436226     0.96300
N185        N  0.06174860  0.69051428  0.20133034    -0.06000
N186        N  0.05747758  0.73475622  0.22333854    -0.58100
N187        N  0.02498925  0.57043429  0.18207006    -0.05600
N188        N  0.98893047  0.53708525  0.19512815    -0.60200
N189        N  0.06043297  0.57357877  0.21810097    -0.05200
N190        N  0.04881562  0.54172903  0.25640763    -0.58100
N191        N  0.02515830  0.68517847  0.16702303    -0.04900
N192        N  0.99468605  0.72503994  0.16528477    -0.60600
C193        C  0.01542622  0.75556837  0.20054278     0.96200
C194        C  0.00395481  0.51883737  0.24154302     0.96000
N195        N  0.06565475  0.56239220  0.02600136    -0.06100
N196        N  0.05277691  0.53281108  0.98821221    -0.58700
N197        N  0.01864975  0.67636146  0.05023582    -0.04300
N198        N  0.98016533  0.70743461  0.03731435    -0.59900
N199        N  0.05433432  0.67535124  0.01390764    -0.06200
N200        N  0.04084863  0.70566087  0.97539318    -0.58900
N201        N  0.02920470  0.56318625  0.06192912    -0.03900
N202        N  0.99050983  0.53408268  0.04958365    -0.60000
Mn203      Mn  0.02331329  0.62330172  0.11600050     1.18400
C204        C  0.00631217  0.51598044  0.00397832     0.98300
C205        C  0.99445232  0.72586154  0.99045580     0.99000
N206        N  0.18491571  0.58017119  0.21295432    -0.06200
N207        N  0.19566061  0.54737099  0.24930677    -0.62500
N208        N  0.21954746  0.69348821  0.17412227    -0.05000
N209        N  0.25745689  0.72512618  0.18588976    -0.63200
N210        N  0.18302633  0.69451397  0.20991377    -0.05700
N211        N  0.19529875  0.72742997  0.24625780    -0.62800
N212        N  0.22125342  0.57973462  0.17681183    -0.04600
N213        N  0.25774433  0.54656025  0.18754358    -0.63500
Mn214      Mn  0.12196985  0.63451200  0.21267737     1.10700
C215        C  0.24084669  0.52728189  0.23258101     0.99500
C216        C  0.24175804  0.74678927  0.23075072     0.99600
N217        N  0.17193268  0.68328962  0.01926967    -0.05700
N218        N  0.16566110  0.72433626  0.99161952    -0.61100
N219        N  0.22457103  0.57226205  0.05441362    -0.05000
N220        N  0.26317023  0.54028353  0.04281702    -0.57800
N221        N  0.18706931  0.56798680  0.02067744    -0.06300
N222        N  0.19920340  0.53321203  0.98602289    -0.60700
N223        N  0.20776952  0.68929859  0.05426232    -0.05300
N224        N  0.22666814  0.73515610  0.05111490    -0.57800
Mn225      Mn  0.12059164  0.62155901  0.01870601     1.20200
Mn226      Mn  0.22051596  0.63352409  0.11420346     1.10100
Cl227      Cl  0.12184288  0.62740272  0.11568580    -0.85800
C228        C  0.20000782  0.75631089  0.01174190     0.96500
C229        C  0.24672386  0.51565357  0.00001417     0.96300
N230        N  0.68108603  0.05837090  0.01356836    -0.06000
N231        N  0.71323236  0.04833444  0.97471496    -0.58100
N232        N  0.56707960  0.02420459  0.05965191    -0.05600
N233        N  0.53874491  0.98541530  0.04742564    -0.60200
N234        N  0.56457597  0.05993119  0.02428938    -0.05200
N235        N  0.53453441  0.04638163  0.98665985    -0.58100
N236        N  0.68393915  0.02258739  0.04864662    -0.04900
N237        N  0.71853816  0.98770974  0.03480979    -0.60600
C238        C  0.73712920  0.00456065  0.98892544     0.96200
C239        C  0.51939756  0.00028571  0.00222688     0.96000
N240        N  0.57398546  0.04991966  0.21654097    -0.06100
N241        N  0.53999706  0.03776134  0.25327880    -0.58700
N242        N  0.69006017  0.02407106  0.16466438    -0.04300
N243        N  0.73091460  0.99449582  0.16241858    -0.59900
N244        N  0.69390686  0.05788705  0.20112813    -0.06200
N245        N  0.73828919  0.05194663  0.22485156    -0.58900
N246        N  0.57231734  0.01669550  0.17912654    -0.03900
N247        N  0.53763256  0.98115271  0.18982775    -0.60000
Mn248      Mn  0.62786014  0.02072101  0.11359987     1.18400
C249        C  0.51704016  0.99505724  0.23590511     0.98300
C250        C  0.76060452  0.01233046  0.19996627     0.99000
N251        N  0.56132709  0.17900566  0.02238219    -0.06200
N252        N  0.52830670  0.19161863  0.98550106    -0.62500
N253        N  0.68166848  0.20770052  0.05991657    -0.05000
N254        N  0.72491670  0.23334045  0.05549338    -0.63200
N255        N  0.67934607  0.17362579  0.02345941    -0.05700
N256        N  0.72028487  0.17511300  0.99344627    -0.62800
N257        N  0.56111675  0.21349577  0.05872337    -0.04600
N258        N  0.52714205  0.25004050  0.04712602    -0.63500
Mn259      Mn  0.62095643  0.11832112  0.01972237     1.10700
C260        C  0.50652979  0.23580328  0.00130455     0.99500
C261        C  0.74832421  0.21215591  0.01402032     0.99600
N262        N  0.68790499  0.17708928  0.21558762    -0.05700
N263        N  0.72113205  0.18981949  0.25215937    -0.61100
N264        N  0.56505697  0.20275199  0.18088859    -0.05000
N265        N  0.52335627  0.23039930  0.18909225    -0.57800
N266        N  0.56964357  0.16775678  0.21685796    -0.06300
N267        N  0.53179493  0.17137036  0.25092974    -0.60700
N268        N  0.68485308  0.21329662  0.18073693    -0.05300
N269        N  0.71673039  0.25083225  0.19268968    -0.57800
Mn270      Mn  0.63188981  0.11280389  0.21480397     1.20200
Mn271      Mn  0.62286369  0.21167738  0.12001042     1.10100
Cl272      Cl  0.62541878  0.11613703  0.11718000    -0.85800
C273        C  0.73962785  0.23580608  0.23735577     0.96500
C274        C  0.50294440  0.20990419  0.23231153     0.96300
C275        C  0.61577338  0.61853870  0.11317228    -0.02300
C276        C  0.11394929  0.61751354  0.61476895    -0.02300
N277        N  0.27703631  0.31327096  0.42490578    -0.06000
N278        N  0.24543101  0.27488590  0.42972036    -0.58100
N279        N  0.30922830  0.42830703  0.46521107    -0.05600
N280        N  0.29632599  0.46013784  0.50266978    -0.60200
N281        N  0.27297475  0.42837193  0.42986126    -0.05200
N282        N  0.23471869  0.45990233  0.44279936    -0.58100
N283        N  0.31344636  0.31171986  0.46005035    -0.04900
N284        N  0.30788385  0.27154913  0.48934972    -0.60600
C285        C  0.26578247  0.24898131  0.46938575     0.96200
C286        C  0.24974240  0.48005074  0.48820719     0.96000
N287        N  0.46875944  0.42461151  0.42201275    -0.06100
N288        N  0.50021325  0.46333265  0.42505590    -0.58700
N289        N  0.43470776  0.31099954  0.46701962    -0.04300
N290        N  0.44453529  0.27795151  0.50442009    -0.59900
N291        N  0.47054550  0.30788742  0.43074161    -0.06200
N292        N  0.50518653  0.27216896  0.44270552    -0.58900
N293        N  0.43162913  0.42763550  0.45703597    -0.03900
N294        N  0.43658925  0.46892367  0.48431053    -0.60000
Mn295      Mn  0.37236342  0.36988564  0.46436107     1.18400
C296        C  0.47902649  0.49090222  0.46338826     0.98300
C297        C  0.48847269  0.25343220  0.48884683     0.99000
N298        N  0.27924819  0.42840434  0.30904058    -0.06200
N299        N  0.24716448  0.46637763  0.30172270    -0.62500
N300        N  0.30815535  0.31302409  0.26987760    -0.05000
N301        N  0.29502892  0.28176619  0.23271633    -0.63200
N302        N  0.27202204  0.31406637  0.30589921    -0.05700
N303        N  0.23364755  0.28321445  0.29406459    -0.62800
N304        N  0.31539242  0.42704624  0.27292042    -0.04600
N305        N  0.30900876  0.46410039  0.23984852    -0.63500
Mn306      Mn  0.27378886  0.37126418  0.36758933     1.10700
C307        C  0.26669409  0.48787150  0.25885872     0.99500
C308        C  0.24859178  0.26301590  0.24834466     0.99600
N309        N  0.46374149  0.30458873  0.31010002    -0.05700
N310        N  0.49186036  0.26318611  0.30541870    -0.61100
N311        N  0.43651995  0.42248018  0.26726732    -0.05000
N312        N  0.44608610  0.45706346  0.23144681    -0.57800
N313        N  0.47324694  0.42219168  0.30212028    -0.06300
N314        N  0.50841592  0.45732338  0.29066864    -0.60700
N315        N  0.42812046  0.30665585  0.27422386    -0.05300
N316        N  0.43143482  0.26719315  0.24399212    -0.57800
Mn317      Mn  0.47141828  0.36451019  0.36615450     1.20200
Mn318      Mn  0.37242407  0.36737956  0.26947865     1.10100
Cl319      Cl  0.37255480  0.36843741  0.36699347    -0.85800
C320        C  0.47080361  0.24021461  0.26438309     0.96500
C321        C  0.49090550  0.47906288  0.24631037     0.96300
N322        N  0.52674455  0.67492527  0.68265986    -0.06000
N323        N  0.49383846  0.68178452  0.72080407    -0.58100
N324        N  0.55452000  0.72047252  0.56563139    -0.05600
N325        N  0.54141653  0.75832481  0.53443702    -0.60200
N326        N  0.51851346  0.68539062  0.56515158    -0.05200
N327        N  0.48058271  0.69860341  0.53336739    -0.58100
N328        N  0.56211062  0.71055329  0.68222748    -0.04900
N329        N  0.55363451  0.74304577  0.71937903    -0.60600
C330        C  0.51167938  0.72387114  0.74345900     0.96200
C331        C  0.49523591  0.74424228  0.51405948     0.96000
N332        N  0.71357342  0.67946265  0.55981634    -0.06100
N333        N  0.74687312  0.68843806  0.52261710    -0.58700
N334        N  0.68354167  0.71335628  0.67877277    -0.04300
N335        N  0.69636320  0.74821535  0.71278310    -0.59900
N336        N  0.72014641  0.67836915  0.67578286    -0.06200
N337        N  0.75881390  0.68915625  0.70719688    -0.58900
N338        N  0.67756794  0.71506989  0.56198351    -0.03900
N339        N  0.68532782  0.74945334  0.52617307    -0.60000
Mn340      Mn  0.61937493  0.71635582  0.62205489     1.18400
C341        C  0.72835522  0.73174798  0.50241969     0.98300
C342        C  0.74311180  0.73236997  0.73076083     0.99000
N343        N  0.52291106  0.56699717  0.55858830    -0.06200
N344        N  0.48940984  0.56162017  0.52115739    -0.62500
N345        N  0.55672634  0.52150584  0.67415670    -0.05000
N346        N  0.54597217  0.48504807  0.70804710    -0.63200
N347        N  0.52057166  0.55691306  0.67608545    -0.05700
N348        N  0.48439926  0.54505060  0.71065214    -0.62800
N349        N  0.56026328  0.53288148  0.55525707    -0.04600
N350        N  0.55382841  0.50424520  0.51487664    -0.63500
Mn351      Mn  0.52055940  0.62100301  0.62069785     1.10700
C352        C  0.51002984  0.52305649  0.49384318     0.99500
C353        C  0.50066615  0.50026776  0.73090311     0.99600
N354        N  0.71517775  0.56022681  0.67212095    -0.05700
N355        N  0.74736305  0.55223619  0.71023017    -0.61100
N356        N  0.68242051  0.52568919  0.55337794    -0.05000
N357        N  0.69444474  0.49070832  0.51854286    -0.57800
N358        N  0.71896213  0.56021923  0.55465450    -0.06300
N359        N  0.75663161  0.54901014  0.52126242    -0.60700
N360        N  0.67810334  0.52630295  0.67217386    -0.05300
N361        N  0.68344591  0.49490808  0.71095412    -0.57800
Mn362      Mn  0.71846237  0.61943479  0.61540234     1.20200
Mn363      Mn  0.61933189  0.52477421  0.61354610     1.10100
Cl364      Cl  0.61943654  0.62038345  0.61770152    -0.85800
C365        C  0.72619612  0.51216440  0.73441138     0.96500
C366        C  0.74084132  0.50576214  0.49830689     0.96300
C367        C  0.61993934  0.11213787  0.61415808    -0.02300
C368        C  0.12409671  0.12559815  0.11902784    -0.02300
C369        C  0.19088687  0.19691420  0.13250843     0.23800
C370        C  0.15476085  0.16256518  0.15495044    -0.24400
C371        C  0.14654381  0.16681528  0.20917149     0.18700
C372        C  0.17711514  0.19897183  0.23915929     0.23700
C373        C  0.21573432  0.22929249  0.21651270    -0.24300
C374        C  0.22144159  0.22861507  0.16271469     0.18600
F375        F  0.25620957  0.25944618  0.13877058    -0.14300
F376        F  0.19880249  0.19819587  0.08082725    -0.16600
F377        F  0.16873846  0.20024906  0.29083596    -0.16600
F378        F  0.10734617  0.14252375  0.23399390    -0.14300
C379        C  0.51739940  0.21601273  0.57463164     0.23800
C380        C  0.51709227  0.21410297  0.52044272    -0.24400
C381        C  0.54406343  0.17382743  0.49686404     0.18700
C382        C  0.57343434  0.13867811  0.52602162     0.23700
C383        C  0.58047536  0.14464990  0.58014909    -0.24300
C384        C  0.54764157  0.18162338  0.60387820     0.18600
F385        F  0.54731094  0.18691249  0.65580233    -0.14300
F386        F  0.49020274  0.25282679  0.59961954    -0.16600
F387        F  0.59196090  0.09749188  0.50068650    -0.16600
F388        F  0.54038317  0.16712026  0.44524237    -0.14300
C389        C  0.13033222  0.54713257  0.54674517     0.23800
C390        C  0.15174939  0.58081243  0.58346053    -0.24400
C391        C  0.20662527  0.57671698  0.59066925     0.18700
C392        C  0.23802191  0.54509197  0.55933841     0.23700
C393        C  0.21633180  0.51459551  0.52093499    -0.24300
C394        C  0.16188580  0.51571623  0.51564957     0.18600
F395        F  0.13853920  0.48552914  0.48073213    -0.14300
F396        F  0.07816728  0.54593517  0.53924318    -0.16600
F397        F  0.29025028  0.54455141  0.56677101    -0.16600
F398        F  0.23079504  0.60065681  0.62962461    -0.14300
C399        C  0.55093413  0.55528590  0.23668496     0.23800
C400        C  0.51926995  0.51820426  0.21446742    -0.24400
C401        C  0.51398734  0.51909966  0.16062731     0.18700
C402        C  0.54287072  0.55267513  0.12967727     0.23700
C403        C  0.57887275  0.58738790  0.15095616    -0.24300
C404        C  0.57864170  0.59050207  0.20581801     0.18600
F405        F  0.60308634  0.62836125  0.23063219    -0.14300
F406        F  0.55382225  0.55868362  0.28870951    -0.16600
F407        F  0.53797928  0.54844010  0.07794832    -0.16600
F408        F  0.48249150  0.48547518  0.13709929    -0.14300
C409        C  0.84798314  0.32902515  0.27509442     0.23800
C410        C  0.84174863  0.33411899  0.32959352    -0.24400
C411        C  0.80498846  0.30052664  0.35264568     0.18700
C412        C  0.77323710  0.26836995  0.32314100     0.23700
C413        C  0.77602949  0.26806184  0.26897066    -0.24300
C414        C  0.81424240  0.29865317  0.24557842     0.18600
F415        F  0.82058035  0.29766848  0.19364492    -0.14300
F416        F  0.88819939  0.35081324  0.24948177    -0.16600
F417        F  0.73797334  0.23879997  0.34798081    -0.16600
F418        F  0.79793125  0.30002430  0.40442803    -0.14300
C419        C  0.99431119  0.45259497  0.31307489     0.23800
C420        C  0.97214462  0.48167596  0.27330152    -0.24400
C421        C  0.91837869  0.47577721  0.26476373     0.18700
C422        C  0.88812118  0.44191057  0.29454794     0.23700
C423        C  0.91040722  0.40951253  0.33252738    -0.24300
C424        C  0.96441430  0.41790985  0.34246341     0.18600
F425        F  0.98877870  0.39603718  0.38300443    -0.14300
F426        F  0.04552069  0.45781223  0.32409561    -0.16600
F427        F  0.83629628  0.44016149  0.28516189    -0.16600
F428        F  0.89417108  0.50389388  0.22804595    -0.14300
C429        C  0.89495854  0.33006477  0.45624661     0.23800
C430        C  0.90602007  0.33592523  0.40245378    -0.24400
C431        C  0.94644590  0.30410433  0.38271048     0.18700
C432        C  0.97854687  0.27461512  0.41552356     0.23700
C433        C  0.96975375  0.27314549  0.46902064    -0.24300
C434        C  0.92662542  0.29997244  0.48849529     0.18600
F435        F  0.91436496  0.29645984  0.53935364    -0.14300
F436        F  0.85160548  0.35030330  0.47831726    -0.16600
F437        F  0.01814077  0.24697624  0.39476358    -0.16600
F438        F  0.95660654  0.30330876  0.33135466    -0.14300
C439        C  0.85926358  0.44283430  0.43317175     0.23800
C440        C  0.83709749  0.40974047  0.39633978    -0.24400
C441        C  0.78226395  0.41511688  0.38932453     0.18700
C442        C  0.75138701  0.44592994  0.42214166     0.23700
C443        C  0.77377635  0.47502355  0.46127595    -0.24300
C444        C  0.82834860  0.47418205  0.46505335     0.18600
F445        F  0.85216434  0.50219809  0.50148252    -0.14300
F446        F  0.91141659  0.44289008  0.44070523    -0.16600
F447        F  0.69929211  0.44868481  0.41421933    -0.16600
F448        F  0.75779211  0.39315834  0.34930921    -0.14300
C449        C  0.35953206  0.80666033  0.29659181     0.23800
C450        C  0.33689101  0.84354895  0.32994734    -0.24400
C451        C  0.28226317  0.85189161  0.32383142     0.18700
C452        C  0.25180632  0.82008141  0.29278968     0.23700
C453        C  0.27460319  0.78170437  0.26262197    -0.24300
C454        C  0.32916697  0.77678333  0.26362907     0.18600
F455        F  0.35342150  0.74135494  0.23408603    -0.14300
F456        F  0.41155918  0.79778070  0.29715666    -0.16600
F457        F  0.19964318  0.82831638  0.29076673    -0.16600
F458        F  0.25752123  0.89219650  0.34523311    -0.14300
C459        C  0.49911647  0.92160136  0.29502448     0.23800
C460        C  0.48028412  0.96320265  0.26699196    -0.24400
C461        C  0.42642692  0.97273606  0.26785894     0.18700
C462        C  0.39255806  0.94290632  0.29841813     0.23700
C463        C  0.41165485  0.90397959  0.33157120    -0.24300
C464        C  0.46577930  0.89195069  0.32589374     0.18600
F465        F  0.48714811  0.84976649  0.34719504    -0.14300
F466        F  0.55040242  0.90903316  0.29203890    -0.16600
F467        F  0.34086169  0.95371374  0.29725582    -0.16600
F468        F  0.40640793  0.01098871  0.23886508    -0.14300
C469        C  0.35022124  0.96262626  0.41342048     0.23800
C470        C  0.34029229  0.91002287  0.40580320    -0.24400
C471        C  0.30129179  0.88873132  0.43843441     0.18700
C472        C  0.27047916  0.91861031  0.47172004     0.23700
C473        C  0.27859288  0.97100610  0.47635974    -0.24300
C474        C  0.31939551  0.99231458  0.44720018     0.18600
F475        F  0.33003725  0.04238762  0.45149442    -0.14300
F476        F  0.39180234  0.98580962  0.39155944    -0.16600
F477        F  0.23321903  0.89547722  0.50056241    -0.16600
F478        F  0.29161352  0.83833499  0.43721137    -0.14300
C479        C  0.44113039  0.85921851  0.44031503     0.23800
C480        C  0.40313554  0.83815876  0.40728116    -0.24400
C481        C  0.39267684  0.78566230  0.41490586     0.18700
C482        C  0.42217643  0.75571218  0.44931995     0.23700
C483        C  0.46287709  0.77649148  0.47819328    -0.24300
C484        C  0.47117257  0.82893482  0.47371630     0.18600
F485        F  0.50805499  0.85160655  0.50250187    -0.14300
F486        F  0.45109636  0.90958238  0.43877866    -0.16600
F487        F  0.41037850  0.70590114  0.45439241    -0.16600
F488        F  0.35204344  0.76282257  0.39189862    -0.14300
C489        C  0.31749074  0.29702005  0.74960742     0.23800
C490        C  0.27393151  0.27190206  0.76990630    -0.24400
C491        C  0.26462988  0.27560364  0.82318576     0.18700
C492        C  0.29739174  0.30454958  0.85508786     0.23700
C493        C  0.33847108  0.33459988  0.83442416    -0.24300
C494        C  0.34934016  0.32727045  0.78078327     0.18600
F495        F  0.39263250  0.34629127  0.75786140    -0.14300
F496        F  0.32983668  0.29188574  0.69894154    -0.16600
F497        F  0.28710137  0.30509769  0.90641111    -0.16600
F498        F  0.22377582  0.25073590  0.84466117    -0.14300
C499        C  0.33232218  0.47252103  0.97382056     0.23800
C500        C  0.27810270  0.47806161  0.96847177    -0.24400
C501        C  0.25419533  0.44980510  0.92947385     0.18700
C502        C  0.28301072  0.41715519  0.89708869     0.23700
C503        C  0.33732937  0.40852374  0.90406661    -0.24300
C504        C  0.36139765  0.43968326  0.94155453     0.18600
F505        F  0.41366879  0.43724771  0.94829196    -0.14300
F506        F  0.35781292  0.49960343  0.00984771    -0.16600
F507        F  0.25713129  0.39756075  0.85670453    -0.16600
F508        F  0.20216586  0.45413981  0.92170508    -0.14300
C509        C  0.44095958  0.29831800  0.88427011     0.23800
C510        C  0.40371549  0.33203739  0.90648893    -0.24400
C511        C  0.39626782  0.32674792  0.96090856     0.18700
C512        C  0.43015636  0.29693366  0.99136687     0.23700
C513        C  0.46984319  0.26734123  0.96893097    -0.24300
C514        C  0.47335886  0.26708591  0.91474915     0.18600
F515        F  0.50980375  0.23784152  0.89083341    -0.14300
F516        F  0.44819924  0.29724186  0.83251305    -0.16600
F517        F  0.42243201  0.29530231  0.04312458    -0.16600
F518        F  0.35458404  0.34752804  0.98544036    -0.14300
C519        C  0.41465892  0.47026455  0.76746736     0.23800
C520        C  0.46933322  0.46945118  0.76892895    -0.24400
C521        C  0.49307855  0.43975506  0.80738026     0.18700
C522        C  0.46315267  0.41043350  0.84230959     0.23700
C523        C  0.40796591  0.40671639  0.83769139    -0.24300
C524        C  0.38471522  0.44002457  0.80107302     0.18600
F525        F  0.33228870  0.44153417  0.79565711    -0.14300
F526        F  0.38970331  0.49893849  0.73169095    -0.16600
F527        F  0.48894610  0.38843724  0.88193892    -0.16600
F528        F  0.54557908  0.44061695  0.81264956    -0.14300
C529        C  0.20960959  0.72361322  0.66056188     0.23800
C530        C  0.20474534  0.72346248  0.71463648    -0.24400
C531        C  0.16680224  0.69152328  0.73646514     0.18700
C532        C  0.13590762  0.65972534  0.70569431     0.23700
C533        C  0.14420779  0.65546662  0.65135992    -0.24300
C534        C  0.18018226  0.69063316  0.62974836     0.18600
F535        F  0.18877366  0.69185123  0.57816396    -0.14300
F536        F  0.24452211  0.75457873  0.63709301    -0.16600
F537        F  0.09620846  0.63574278  0.73000568    -0.16600
F538        F  0.15796847  0.69232923  0.78807442    -0.14300
C539        C  0.17229922  0.02871806  0.01585848     0.23800
C540        C  0.22643613  0.02837036  0.02164149    -0.24400
C541        C  0.24799774  0.05670304  0.06135866     0.18700
C542        C  0.21646973  0.08642346  0.09383937     0.23700
C543        C  0.16166475  0.09086962  0.08597206    -0.24300
C544        C  0.14034143  0.05870732  0.04790809     0.18600
F545        F  0.08816629  0.05763297  0.04042366    -0.14300
F546        F  0.15017273  0.99952984  0.97933698    -0.16600
F547        F  0.24028921  0.10740042  0.13480123    -0.16600
F548        F  0.30009361  0.05466058  0.06963145    -0.14300
C549        C  0.54291467  0.68682150  0.10142354     0.23800
C550        C  0.57610146  0.64989411  0.07824202    -0.24400
C551        C  0.56714671  0.64093913  0.02472527     0.18700
C552        C  0.53217948  0.67105319  0.99586940     0.23700
C553        C  0.50308094  0.71029126  0.01879981    -0.24300
C554        C  0.50863875  0.71726754  0.07221518     0.18600
F555        F  0.47988896  0.75315894  0.09691006    -0.14300
F556        F  0.54492643  0.69489049  0.15293686    -0.16600
F557        F  0.52676869  0.66134958  0.94491820    -0.16600
F558        F  0.58833346  0.60067595  0.99992005    -0.14300
C559        C  0.51906060  0.00779128  0.65611995     0.23800
C560        C  0.51507285  0.01276297  0.70995436    -0.24400
C561        C  0.54386111  0.05178697  0.73276653     0.18700
C562        C  0.57547065  0.08458449  0.70330055     0.23700
C563        C  0.58261896  0.07820785  0.64921376    -0.24300
C564        C  0.55096525  0.04040057  0.62637870     0.18600
F565        F  0.55182844  0.03376808  0.57463088    -0.14300
F566        F  0.49119688  0.97185958  0.63166020    -0.16600
F567        F  0.59549499  0.12460483  0.72853380    -0.16600
F568        F  0.54105295  0.05913653  0.78441793    -0.14300
C569        C  0.69139618  0.23206008  0.67244662     0.23800
C570        C  0.71879274  0.21153121  0.71434027    -0.24400
C571        C  0.71875301  0.15840122  0.71980901     0.18700
C572        C  0.69007793  0.12717479  0.68598946     0.23700
C573        C  0.65732378  0.14784949  0.64696096    -0.24300
C574        C  0.66238788  0.20127098  0.63890640     0.18600
F575        F  0.64222365  0.22458619  0.59687907    -0.14300
F576        F  0.69313111  0.28270409  0.66334760    -0.16600
F577        F  0.69225185  0.07631348  0.69343676    -0.16600
F578        F  0.74683707  0.13638861  0.75797945    -0.14300
C579        C  0.10034884  0.17190026  0.03098636     0.23800
C580        C  0.09055209  0.16285268  0.08442629    -0.24400
C581        C  0.05148260  0.19399068  0.10755281     0.18700
C582        C  0.01969528  0.22658136  0.07811354     0.23700
C583        C  0.02762764  0.23219389  0.02468740    -0.24300
C584        C  0.06909153  0.20514234  0.00199844     0.18600
F585        F  0.08025386  0.21115376  0.95114871    -0.14300
F586        F  0.14241509  0.15211602  0.00626409    -0.16600
F587        F  0.98168138  0.25348077  0.10250727    -0.16600
F588        F  0.04273853  0.19178784  0.15912928    -0.14300
C589        C  0.68442909  0.49508005  0.05856952     0.23800
C590        C  0.71090074  0.51338401  0.01505257    -0.24400
C591        C  0.71128432  0.56603531  0.00668603     0.18700
C592        C  0.68317093  0.59926821  0.03948826     0.23700
C593        C  0.65139143  0.58081307  0.08054277    -0.24300
C594        C  0.65628624  0.52775863  0.09129634     0.18600
F595        F  0.63745462  0.50669739  0.13531599    -0.14300
F596        F  0.68706423  0.44498919  0.07054277    -0.16600
F597        F  0.68500959  0.64971294  0.02942137    -0.16600
F598        F  0.73932899  0.58548720  0.96683622    -0.14300
C599        C  0.07067366  0.51246990  0.71311582     0.23800
C600        C  0.01633182  0.50941677  0.70750192    -0.24400
C601        C  0.99335035  0.53942837  0.66891259     0.18700
C602        C  0.02324353  0.57273825  0.63806936     0.23700
C603        C  0.07775471  0.57944238  0.64622210    -0.24300
C604        C  0.10069476  0.54579441  0.68268316     0.18600
F605        F  0.15289849  0.54598742  0.69009745    -0.14300
F606        F  0.09547823  0.48217268  0.74760662    -0.16600
F607        F  0.99817140  0.59517600  0.59827535    -0.16600
F608        F  0.94135060  0.53663937  0.66068342    -0.14300
C609        C  0.69285943  0.63312874  0.17707107     0.23800
C610        C  0.65553645  0.65434523  0.14268353    -0.24400
C611        C  0.65883576  0.70802367  0.13576568     0.18700
C612        C  0.68996675  0.73843782  0.16772368     0.23700
C613        C  0.72350964  0.71701352  0.20452256    -0.24300
C614        C  0.72582971  0.66365088  0.20718175     0.18600
F615        F  0.75884349  0.64052234  0.24053637    -0.14300
F616        F  0.69623046  0.58219403  0.18341022    -0.16600
F617        F  0.68868516  0.78944832  0.16098314    -0.16600
F618        F  0.63484626  0.73212577  0.09628842    -0.14300
C619        C  0.00713150  0.04942224  0.17983234     0.23800
C620        C  0.03220486  0.01910923  0.21681287    -0.24400
C621        C  0.08683088  0.01934068  0.21776544     0.18700
C622        C  0.11533800  0.05230549  0.18567273     0.23700
C623        C  0.09034115  0.08637502  0.15083805    -0.24300
C624        C  0.03555638  0.08055713  0.14586856     0.18600
F625        F  0.00865806  0.10248501  0.10695033    -0.14300
F626        F  0.95457176  0.04783253  0.17532464    -0.16600
F627        F  0.16780987  0.05260814  0.19082483    -0.16600
F628        F  0.11292071  0.98935750  0.25161176    -0.14300
C629        C  0.09322865  0.65896776  0.52325367     0.23800
C630        C  0.08209596  0.65351504  0.57705481    -0.24400
C631        C  0.04209737  0.68583935  0.59677011     0.18700
C632        C  0.01044155  0.71556685  0.56391356     0.23700
C633        C  0.01897778  0.71614612  0.51040144    -0.24300
C634        C  0.06156347  0.68869996  0.49089539     0.18600
F635        F  0.07355303  0.69165676  0.43993755    -0.14300
F636        F  0.13672910  0.63895771  0.50126656    -0.16600
F637        F  0.97155623  0.74418830  0.58461169    -0.16600
F638        F  0.03202408  0.68702022  0.64813845    -0.14300
C639        C  0.71660773  0.07122061  0.50351048     0.23800
C640        C  0.71811441  0.01790335  0.50682358    -0.24400
C641        C  0.69317199  0.99536868  0.54939459     0.18700
C642        C  0.66544239  0.02478868  0.58606944     0.23700
C643        C  0.65807079  0.07819198  0.57963932    -0.24300
C644        C  0.68823211  0.10072348  0.53954977     0.18600
F645        F  0.68746787  0.15170304  0.53278274    -0.14300
F646        F  0.74107813  0.09510849  0.46382584    -0.16600
F647        F  0.64865195  0.00041716  0.62910279    -0.16600
F648        F  0.69767138  0.94463385  0.55703005    -0.14300
C649        C  0.85484930  0.93447611  0.93358573     0.23800
C650        C  0.83289396  0.90544870  0.89326076    -0.24400
C651        C  0.77987014  0.91654695  0.88125835     0.18700
C652        C  0.74980626  0.94972311  0.91162648     0.23700
C653        C  0.77102435  0.97366552  0.95444258    -0.24300
C654        C  0.82401109  0.96652831  0.96463511     0.18600
F655        F  0.84616780  0.99097634  0.00461053    -0.14300
F656        F  0.90621434  0.93026106  0.94458446    -0.16600
F657        F  0.69918340  0.95805078  0.89935310    -0.16600
F658        F  0.75653347  0.89757735  0.83902354    -0.14300
C659        C  0.95778008  0.91380576  0.83788332     0.23800
C660        C  0.90383352  0.90555740  0.82891844    -0.24400
C661        C  0.88056796  0.93679635  0.79045808     0.18700
C662        C  0.90990455  0.97048163  0.76014934     0.23700
C663        C  0.96393992  0.97385479  0.76590966    -0.24300
C664        C  0.98738834  0.94558537  0.80547277     0.18600
F665        F  0.03917627  0.95009997  0.81412686    -0.14300
F666        F  0.98243477  0.89359498  0.87916680    -0.16600
F667        F  0.88537650  0.99829101  0.72339338    -0.16600
F668        F  0.82908484  0.93362056  0.78041144    -0.14300
C669        C  0.85101581  0.81989708  0.77399511     0.23800
C670        C  0.83688301  0.83110832  0.82598447    -0.24400
C671        C  0.79475852  0.80274766  0.84707763     0.18700
C672        C  0.76392861  0.77156581  0.81615892     0.23700
C673        C  0.77678604  0.76349330  0.76434314    -0.24300
C674        C  0.82166101  0.78636173  0.74424241     0.18600
F675        F  0.83688335  0.77675528  0.69503241    -0.14300
F676        F  0.89430978  0.83936982  0.75149430    -0.16600
F677        F  0.72158551  0.74869866  0.83718563    -0.16600
F678        F  0.78127711  0.80721823  0.89744548    -0.14300
C679        C  0.94175758  0.80050370  0.87509867     0.23800
C680        C  0.90070815  0.83028985  0.89662237    -0.24400
C681        C  0.88781088  0.81964029  0.94909200     0.18700
C682        C  0.91814916  0.78631653  0.97912552     0.23700
C683        C  0.96173072  0.76094423  0.95818502    -0.24300
C684        C  0.97248856  0.76799618  0.90547227     0.18600
F685        F  0.01260648  0.74276881  0.88256198    -0.14300
F686        F  0.95412304  0.80424505  0.82440458    -0.16600
F687        F  0.90414574  0.77866893  0.02907823    -0.16600
F688        F  0.84428999  0.83887554  0.97174860    -0.14300
loop_ 
_geom_bond_atom_site_label_1 
_geom_bond_atom_site_label_2 
_geom_bond_distance 
_geom_bond_site_symmetry_2 
_ccdc_geom_bond_type 
C1          C650   1.579       .  S
C1          C660   1.580       .  S
C1          C670   1.579       .  S
C1          C680   1.582       .  S
N2            N3   1.334       .  A
N2            N8   1.315       .  A
N2          Mn31   2.274       .  S
N3           C10   1.366       .  A
N4            N6   1.311       .  A
N4            N5   1.305       .  A
N4          Mn20   2.087       .  S
N5           C11   1.334       .  A
N6            N7   1.308       .  A
N6          Mn31   2.175       .  S
N7           C11   1.353       .  A
N8            N9   1.325   1_565  A
N8          Mn20   2.204       .  S
N9           C10   1.353   1_545  A
C10         C640   1.514   1_565  S
C11         C250   1.399   1_565  S
N12          N18   1.310       .  A
N12          N13   1.326   1_655  A
N12         Mn42   2.214       .  S
N13          C21   1.358       .  A
N14          N15   1.303       .  A
N14          N16   1.312       .  A
N14         Mn20   2.110       .  S
N15          C22   1.336       .  A
N16          N17   1.305       .  A
N16         Mn42   2.124       .  S
N17          C22   1.340       .  A
N18          N19   1.323   1_565  A
N18         Mn20   2.208       .  S
N19          C21   1.355   1_645  A
Mn20        Cl44   2.525       .  S
C21         C620   1.498   1_565  S
C22         C159   1.388   1_665  S
N23          N24   1.331       .  A
N23          N29   1.317       .  A
N23         Mn31   2.254       .  S
N24          C32   1.362       .  A
N25          N27   1.317       .  A
N25          N26   1.307       .  A
N25         Mn43   2.148       .  S
N26          C33   1.341       .  A
N27          N28   1.311       .  A
N27         Mn31   2.161       .  S
N28          C33   1.344       .  A
N29          N30   1.329       .  A
N29         Mn43   2.233       .  S
N30          C32   1.358       .  A
Mn31        Cl44   2.539       .  S
C32         C613   1.521       .  S
C33         C341   1.410       .  S
N34          N35   1.325   1_655  A
N34          N40   1.315       .  A
N34         Mn42   2.207       .  S
N35          C45   1.353   1_455  A
N36          N37   1.308       .  A
N36          N38   1.312       .  A
N36         Mn43   2.161       .  S
N37          C46   1.349       .  A
N38          N39   1.308   1_655  A
N38         Mn42   2.112       .  S
N39          C46   1.340   1_455  A
N40          N41   1.330       .  A
N40         Mn43   2.252       .  S
N41          C45   1.361       .  A
Mn42        Cl44   2.544       .  S
Mn43        Cl44   2.528       .  S
C45         C633   1.499   1_655  S
C46         C193   1.401   1_655  S
N47          N48   1.304       .  A
N47          N53   1.314       .  A
N47         Mn76   2.124       .  S
N48          C55   1.339       .  A
N49          N51   1.312       .  A
N49          N50   1.325   1_556  A
N49         Mn65   2.210       .  S
N50          C56   1.357   1_554  A
N51          N52   1.324   1_655  A
N51         Mn76   2.217       .  S
N52          C56   1.358   1_455  A
N53          N54   1.304       .  A
N53         Mn65   2.121       .  S
N54          C55   1.339       .  A
C55         C204   1.392   1_656  S
C56         C583   1.503   1_656  S
N57          N63   1.313       .  A
N57          N58   1.306       .  A
N57         Mn87   2.161       .  S
N58          C66   1.348       .  A
N59          N60   1.324       .  A
N59          N61   1.315       .  A
N59         Mn65   2.200       .  S
N60          C67   1.352       .  A
N61          N62   1.331       .  A
N61         Mn87   2.259       .  S
N62          C67   1.362       .  A
N63          N64   1.307       .  A
N63         Mn65   2.111       .  S
N64          C66   1.338       .  A
Mn65        Cl89   2.533       .  S
C66         C261   1.398   1_556  S
C67         C590   1.499   1_556  S
N68          N69   1.308       .  A
N68          N74   1.313       .  A
N68         Mn76   2.114       .  S
N69          C77   1.339       .  A
N70          N72   1.314       .  A
N70          N71   1.330       .  A
N70         Mn88   2.243       .  S
N71          C78   1.362       .  A
N72          N73   1.324   1_655  A
N72         Mn76   2.208       .  S
N73          C78   1.355   1_455  A
N74          N75   1.307       .  A
N74         Mn88   2.167       .  S
N75          C77   1.349       .  A
Mn76        Cl89   2.536       .  S
C77         C183   1.402   1_655  S
C78         C600   1.510   1_655  S
N79          N80   1.310       .  A
N79          N85   1.315       .  A
N79         Mn87   2.146       .  S
N80          C90   1.343       .  A
N81          N82   1.329       .  A
N81          N83   1.316       .  A
N81         Mn88   2.238       .  S
N82          C91   1.357       .  A
N83          N84   1.334       .  A
N83         Mn87   2.262       .  S
N84          C91   1.364       .  A
N85          N86   1.309       .  A
N85         Mn88   2.165       .  S
N86          C90   1.346       .  A
Mn87        Cl89   2.542       .  S
Mn88        Cl89   2.526       .  S
C90         C365   1.409       .  S
C91         C570   1.519       .  S
N92          N93   1.330       .  A
N92          N98   1.313       .  A
N92        Mn121   2.250       .  S
N93         C100   1.362       .  A
N94          N96   1.311       .  A
N94          N95   1.309       .  A
N94        Mn110   2.117       .  S
N95         C101   1.342       .  A
N96          N97   1.305       .  A
N96        Mn121   2.157       .  S
N97         C101   1.349       .  A
N98          N99   1.325   1_556  A
N98        Mn110   2.202       .  S
N99         C100   1.355   1_554  A
C100        C553   1.511   1_556  S
C101        C228   1.404   1_556  S
N102        N108   1.311       .  A
N102        N103   1.326   1_565  A
N102       Mn132   2.219       .  S
N103        C111   1.357   1_545  A
N104        N105   1.306       .  A
N104        N106   1.313       .  A
N104       Mn110   2.132       .  S
N105        C112   1.342       .  A
N106        N107   1.301       .  A
N106       Mn132   2.105       .  S
N107        C112   1.336       .  A
N108        N109   1.322   1_556  A
N108       Mn110   2.194       .  S
N109        C111   1.352   1_554  A
Mn110      Cl134   2.542       .  S
C111        C540   1.484   1_566  S
C112        C239   1.388   1_566  S
N113        N114   1.329       .  A
N113        N119   1.315       .  A
N113       Mn121   2.235       .  S
N114        C122   1.360       .  A
N115        N117   1.317       .  A
N115        N116   1.311       .  A
N115       Mn133   2.181       .  S
N116        C123   1.350       .  A
N117        N118   1.310       .  A
N117       Mn121   2.141       .  S
N118        C123   1.340       .  A
N119        N120   1.329       .  A
N119       Mn133   2.241       .  S
N120        C122   1.360       .  A
Mn121      Cl134   2.525       .  S
C122        C530   1.518       .  S
C123        C330   1.412       .  S
N124        N125   1.323       .  A
N124        N130   1.314       .  A
N124       Mn132   2.207       .  S
N125        C135   1.354       .  A
N126        N127   1.309       .  A
N126        N128   1.313       .  A
N126       Mn133   2.181       .  S
N127        C136   1.353       .  A
N128        N129   1.305       .  A
N128       Mn132   2.093       .  S
N129        C136   1.334       .  A
N130        N131   1.332       .  A
N130       Mn133   2.250       .  S
N131        C135   1.364       .  A
Mn132      Cl134   2.521       .  S
Mn133      Cl134   2.540       .  S
C135        C560   1.516   1_565  S
C136        C148   1.398   1_565  S
C137        C493   1.597       .  S
C137        C503   1.592       .  S
C137        C510   1.593       .  S
C137        C523   1.589       .  S
C138        C450   1.592       .  S
C138        C463   1.589       .  S
C138        C470   1.590       .  S
C138        C480   1.586       .  S
C139        C410   1.601       .  S
C139        C423   1.598       .  S
C139        C430   1.594       .  S
C139        C440   1.591       .  S
N140        N141   1.308       .  A
N140        N146   1.310       .  A
N140       Mn169   2.164       .  S
N141        C148   1.352       .  A
N142        N144   1.313       .  A
N142        N143   1.325   1_545  A
N142       Mn158   2.214       .  S
N143        C149   1.357   1_565  A
N144        N145   1.328       .  A
N144       Mn169   2.235       .  S
N145        C149   1.360       .  A
N146        N147   1.304   1_545  A
N146       Mn158   2.093       .  S
N147        C148   1.335   1_565  A
C149        C473   1.509   1_545  S
N150        N156   1.315       .  A
N150        N151   1.305   1_455  A
N150       Mn180   2.124       .  S
N151        C159   1.339   1_655  A
N152        N153   1.323   1_545  A
N152        N154   1.311       .  A
N152       Mn158   2.205       .  S
N153        C160   1.354   1_465  A
N154        N155   1.326   1_455  A
N154       Mn180   2.217       .  S
N155        C160   1.358       .  A
N156        N157   1.303   1_545  A
N156       Mn158   2.114       .  S
N157        C159   1.336   1_565  A
Mn158      Cl182   2.521       .  S
C160        C663   1.494   1_545  S
N161        N162   1.310       .  A
N161        N167   1.316       .  A
N161       Mn169   2.141       .  S
N162        C170   1.342       .  A
N163        N165   1.316       .  A
N163        N164   1.331       .  A
N163       Mn181   2.251       .  S
N164        C171   1.360       .  A
N165        N166   1.328       .  A
N165       Mn169   2.225       .  S
N166        C171   1.357       .  A
N167        N168   1.309       .  A
N167       Mn181   2.172       .  S
N168        C170   1.348       .  A
Mn169      Cl182   2.541       .  S
C170        C285   1.409       .  S
C171        C490   1.508       .  S
N172        N173   1.306   1_455  A
N172        N178   1.313       .  A
N172       Mn180   2.112       .  S
N173        C183   1.337   1_655  A
N174        N175   1.331       .  A
N174        N176   1.316       .  A
N174       Mn181   2.256       .  S
N175        C184   1.361       .  A
N176        N177   1.327   1_455  A
N176       Mn180   2.218       .  S
N177        C184   1.355   1_655  A
N178        N179   1.310       .  A
N178       Mn181   2.170       .  S
N179        C183   1.351       .  A
Mn180      Cl182   2.538       .  S
Mn181      Cl182   2.526       .  S
C184        C433   1.506   1_455  S
N185        N186   1.307       .  A
N185        N191   1.310       .  A
N185       Mn214   2.153       .  S
N186        C193   1.349       .  A
N187        N189   1.315       .  A
N187        N188   1.324   1_455  A
N187       Mn203   2.207       .  S
N188        C194   1.354   1_655  A
N189        N190   1.333       .  A
N189       Mn214   2.268       .  S
N190        C194   1.366       .  A
N191        N192   1.308   1_455  A
N191       Mn203   2.111       .  S
N192        C193   1.340   1_655  A
C194        C420   1.518   1_455  S
N195        N201   1.316       .  A
N195        N196   1.305   1_554  A
N195       Mn225   2.121       .  S
N196        C204   1.337   1_556  A
N197        N198   1.324   1_455  A
N197        N199   1.310       .  A
N197       Mn203   2.207       .  S
N198        C205   1.357   1_554  A
N199        N200   1.324   1_554  A
N199       Mn225   2.213       .  S
N200        C205   1.358   1_455  A
N201        N202   1.305   1_455  A
N201       Mn203   2.129       .  S
N202        C204   1.338   1_655  A
Mn203      Cl227   2.535       .  S
C205        C683   1.503       .  S
N206        N207   1.308       .  A
N206        N212   1.318       .  A
N206       Mn214   2.154       .  S
N207        C215   1.342       .  A
N208        N210   1.315       .  A
N208        N209   1.327       .  A
N208       Mn226   2.226       .  S
N209        C216   1.358       .  A
N210        N211   1.329       .  A
N210       Mn214   2.239       .  S
N211        C216   1.359       .  A
N212        N213   1.309       .  A
N212       Mn226   2.153       .  S
N213        C215   1.343       .  A
Mn214      Cl227   2.527       .  S
C215        C307   1.407       .  S
C216        C453   1.510       .  S
N217        N218   1.307   1_554  A
N217        N223   1.311       .  A
N217       Mn225   2.106       .  S
N218        C228   1.338   1_556  A
N219        N220   1.331       .  A
N219        N221   1.314       .  A
N219       Mn226   2.250       .  S
N220        C229   1.363       .  A
N221        N222   1.323   1_554  A
N221       Mn225   2.210       .  S
N222        C229   1.355   1_556  A
N223        N224   1.310       .  A
N223       Mn226   2.162       .  S
N224        C228   1.352       .  A
Mn225      Cl227   2.525       .  S
Mn226      Cl227   2.542       .  S
C229        C500   1.514   1_554  S
N230        N231   1.325   1_554  A
N230        N236   1.311       .  A
N230       Mn259   2.209       .  S
N231        C238   1.356       .  A
N232        N234   1.315       .  A
N232        N233   1.304   1_545  A
N232       Mn248   2.109       .  S
N233        C239   1.335   1_565  A
N234        N235   1.304   1_554  A
N234       Mn259   2.126       .  S
N235        C239   1.340   1_556  A
N236        N237   1.324   1_545  A
N236       Mn248   2.210       .  S
N237        C238   1.354   1_564  A
C238        C653   1.486   1_545  S
N240        N246   1.314       .  A
N240        N241   1.328       .  A
N240       Mn270   2.239       .  S
N241        C249   1.358   1_545  A
N242        N243   1.305   1_545  A
N242        N244   1.310       .  A
N242       Mn248   2.089       .  S
N243        C250   1.334   1_565  A
N244        N245   1.309       .  A
N244       Mn270   2.174       .  S
N245        C250   1.354       .  A
N246        N247   1.326   1_545  A
N246       Mn248   2.214       .  S
N247        C249   1.356       .  A
Mn248      Cl272   2.522       .  S
C249        C460   1.498       .  S
N251        N252   1.325   1_554  A
N251        N257   1.315       .  A
N251       Mn259   2.209       .  S
N252        C260   1.354   1_556  A
N253        N255   1.312       .  A
N253        N254   1.310       .  A
N253       Mn271   2.165       .  S
N254        C261   1.351       .  A
N255        N256   1.305   1_554  A
N255       Mn259   2.106       .  S
N256        C261   1.336   1_556  A
N257        N258   1.331       .  A
N257       Mn271   2.258       .  S
N258        C260   1.363       .  A
Mn259      Cl272   2.535       .  S
C260        C513   1.511   1_554  S
N262        N263   1.329       .  A
N262        N268   1.315       .  A
N262       Mn270   2.235       .  S
N263        C273   1.360       .  A
N264        N265   1.308       .  A
N264        N266   1.316       .  A
N264       Mn271   2.173       .  S
N265        C274   1.347       .  A
N266        N267   1.312       .  A
N266       Mn270   2.152       .  S
N267        C274   1.345       .  A
N268        N269   1.331       .  A
N268       Mn271   2.253       .  S
N269        C273   1.361       .  A
Mn270      Cl272   2.544       .  S
Mn271      Cl272   2.525       .  S
C273        C413   1.520       .  S
C274        C320   1.415       .  S
C275        C403   1.589       .  S
C275        C550   1.595       .  S
C275        C593   1.590       .  S
C275        C610   1.601       .  S
C276        C390   1.589       .  S
C276        C533   1.597       .  S
C276        C603   1.592       .  S
C276        C630   1.589       .  S
N277        N278   1.309       .  A
N277        N283   1.313       .  A
N277       Mn306   2.131       .  S
N278        C285   1.341       .  A
N279        N281   1.314       .  A
N279        N280   1.327       .  A
N279       Mn295   2.230       .  S
N280        C286   1.359       .  A
N281        N282   1.325       .  A
N281       Mn306   2.217       .  S
N282        C286   1.357       .  A
N283        N284   1.310       .  A
N283       Mn295   2.170       .  S
N284        C285   1.349       .  A
C286        C393   1.508       .  S
N287        N293   1.315       .  A
N287        N288   1.312       .  A
N287       Mn317   2.157       .  S
N288        C296   1.345       .  A
N289        N290   1.327       .  A
N289        N291   1.314       .  A
N289       Mn295   2.225       .  S
N290        C297   1.357       .  A
N291        N292   1.329       .  A
N291       Mn317   2.241       .  S
N292        C297   1.361       .  A
N293        N294   1.311       .  A
N293       Mn295   2.170       .  S
N294        C296   1.348       .  A
Mn295      Cl319   2.529       .  S
C296        C352   1.418       .  S
C297        C380   1.511       .  S
N298        N299   1.307       .  A
N298        N304   1.315       .  A
N298       Mn306   2.141       .  S
N299        C307   1.342       .  A
N300        N302   1.313       .  A
N300        N301   1.321       .  A
N300       Mn318   2.197       .  S
N301        C308   1.354       .  A
N302        N303   1.324       .  A
N302       Mn306   2.209       .  S
N303        C308   1.356       .  A
N304        N305   1.309       .  A
N304       Mn318   2.145       .  S
N305        C307   1.343       .  A
Mn306      Cl319   2.539       .  S
C308        C373   1.491       .  S
N309        N310   1.311       .  A
N309        N315   1.313       .  A
N309       Mn317   2.168       .  S
N310        C320   1.349       .  A
N311        N312   1.323       .  A
N311        N313   1.314       .  A
N311       Mn318   2.207       .  S
N312        C321   1.354       .  A
N313        N314   1.331       .  A
N313       Mn317   2.249       .  S
N314        C321   1.363       .  A
N315        N316   1.310       .  A
N315       Mn318   2.145       .  S
N316        C320   1.344       .  A
Mn317      Cl319   2.542       .  S
Mn318      Cl319   2.533       .  S
C321        C400   1.508       .  S
N322        N323   1.309       .  A
N322        N328   1.313       .  A
N322       Mn351   2.163       .  S
N323        C330   1.346       .  A
N324        N326   1.315       .  A
N324        N325   1.326       .  A
N324       Mn340   2.231       .  S
N325        C331   1.359       .  A
N326        N327   1.326       .  A
N326       Mn351   2.224       .  S
N327        C331   1.358       .  A
N328        N329   1.310       .  A
N328       Mn340   2.143       .  S
N329        C330   1.343       .  A
C331        C483   1.509       .  S
N332        N338   1.315       .  A
N332        N333   1.307       .  A
N332       Mn362   2.142       .  S
N333        C341   1.341       .  A
N334        N335   1.325       .  A
N334        N336   1.315       .  A
N334       Mn340   2.222       .  S
N335        C342   1.355       .  A
N336        N337   1.325       .  A
N336       Mn362   2.217       .  S
N337        C342   1.355       .  A
N338        N339   1.311       .  A
N338       Mn340   2.152       .  S
N339        C341   1.343       .  A
Mn340      Cl364   2.538       .  S
C342        C673   1.489       .  S
N343        N344   1.313       .  A
N343        N349   1.314       .  A
N343       Mn351   2.159       .  S
N344        C352   1.347       .  A
N345        N347   1.314       .  A
N345        N346   1.330       .  A
N345       Mn363   2.243       .  S
N346        C353   1.361       .  A
N347        N348   1.325       .  A
N347       Mn351   2.215       .  S
N348        C353   1.356       .  A
N349        N350   1.309       .  A
N349       Mn363   2.162       .  S
N350        C352   1.346       .  A
Mn351      Cl364   2.541       .  S
C353        C520   1.508       .  S
N354        N355   1.311       .  A
N354        N360   1.313       .  A
N354       Mn362   2.144       .  S
N355        C365   1.344       .  A
N356        N357   1.329       .  A
N356        N358   1.315       .  A
N356       Mn363   2.242       .  S
N357        C366   1.360       .  A
N358        N359   1.327       .  A
N358       Mn362   2.228       .  S
N359        C366   1.358       .  A
N360        N361   1.308       .  A
N360       Mn363   2.155       .  S
N361        C365   1.345       .  A
Mn362      Cl364   2.545       .  S
Mn363      Cl364   2.528       .  S
C366        C443   1.511       .  S
C367        C383   1.594       .  S
C367        C563   1.594       .  S
C367        C573   1.605       .  S
C367        C643   1.596       .  S
C368        C370   1.575       .  S
C368        C543   1.578       .  S
C368        C580   1.584       .  S
C368        C623   1.581       .  S
C369        C370   1.422       .  A
C369        C374   1.401       .  A
C369        F376   1.356       .  S
C370        C371   1.427       .  A
C371        C372   1.405       .  A
C371        F378   1.355       .  S
C372        C373   1.403       .  A
C372        F377   1.358       .  S
C373        C374   1.404       .  A
C374        F375   1.358       .  S
C379        C380   1.409       .  A
C379        C384   1.413       .  A
C379        F386   1.358       .  S
C380        C381   1.405       .  A
C381        C382   1.413       .  A
C381        F388   1.358       .  S
C382        C383   1.429       .  A
C382        F387   1.355       .  S
C383        C384   1.425       .  A
C384        F385   1.357       .  S
C389        C390   1.425       .  A
C389        C394   1.408       .  A
C389        F396   1.357       .  S
C390        C391   1.427       .  A
C391        C392   1.413       .  A
C391        F398   1.354       .  S
C392        C393   1.407       .  A
C392        F397   1.358       .  S
C393        C394   1.407       .  A
C394        F395   1.358       .  S
C399        C400   1.408       .  A
C399        C404   1.417       .  A
C399        F406   1.357       .  S
C400        C401   1.406       .  A
C401        C402   1.405       .  A
C401        F408   1.358       .  S
C402        C403   1.425       .  A
C402        F407   1.356       .  S
C403        C404   1.428       .  A
C404        F405   1.354       .  S
C409        C410   1.430       .  A
C409        C414   1.419       .  A
C409        F416   1.355       .  S
C410        C411   1.427       .  A
C411        C412   1.416       .  A
C411        F418   1.356       .  S
C412        C413   1.408       .  A
C412        F417   1.357       .  S
C413        C414   1.408       .  A
C414        F415   1.358       .  S
C419        C420   1.406       .  A
C419        C424   1.416       .  A
C419        F426   1.358   1_655  S
C420        C421   1.411       .  A
C421        C422   1.413       .  A
C421        F428   1.358       .  S
C422        C423   1.423       .  A
C422        F427   1.357       .  S
C423        C424   1.433       .  A
C424        F425   1.354       .  S
C429        C430   1.431       .  A
C429        C434   1.411       .  A
C429        F436   1.356       .  S
C430        C431   1.425       .  A
C431        C432   1.417       .  A
C431        F438   1.357       .  S
C432        C433   1.406       .  A
C432        F437   1.357   1_655  S
C433        C434   1.403       .  A
C434        F435   1.358       .  S
C439        C440   1.425       .  A
C439        C444   1.410       .  A
C439        F446   1.356       .  S
C440        C441   1.428       .  A
C441        C442   1.415       .  A
C441        F448   1.355       .  S
C442        C443   1.407       .  A
C442        F447   1.358       .  S
C443        C444   1.407       .  A
C444        F445   1.357       .  S
C449        C450   1.425       .  A
C449        C454   1.412       .  A
C449        F456   1.356       .  S
C450        C451   1.429       .  A
C451        C452   1.413       .  A
C451        F458   1.355       .  S
C452        C453   1.405       .  A
C452        F457   1.358       .  S
C453        C454   1.408       .  A
C454        F455   1.357       .  S
C459        C460   1.400       .  A
C459        C464   1.408       .  A
C459        F466   1.358       .  S
C460        C461   1.405       .  A
C461        C462   1.414       .  A
C461        F468   1.357   1_565  S
C462        C463   1.424       .  A
C462        F467   1.357       .  S
C463        C464   1.431       .  A
C464        F465   1.355       .  S
C469        C470   1.430       .  A
C469        C474   1.413       .  A
C469        F476   1.355       .  S
C470        C471   1.424       .  A
C471        C472   1.408       .  A
C471        F478   1.356       .  S
C472        C473   1.407       .  A
C472        F477   1.357       .  S
C473        C474   1.407       .  A
C474        F475   1.358   1_565  S
C479        C480   1.424       .  A
C479        C484   1.408       .  A
C479        F486   1.357       .  S
C480        C481   1.427       .  A
C481        C482   1.412       .  A
C481        F488   1.355       .  S
C482        C483   1.409       .  A
C482        F487   1.358       .  S
C483        C484   1.407       .  A
C484        F485   1.357       .  S
C489        C490   1.403       .  A
C489        C494   1.412       .  A
C489        F496   1.358       .  S
C490        C491   1.406       .  A
C491        C492   1.418       .  A
C491        F498   1.357       .  S
C492        C493   1.425       .  A
C492        F497   1.357       .  S
C493        C494   1.432       .  A
C494        F495   1.356       .  S
C499        C500   1.408       .  A
C499        C504   1.414       .  A
C499        F506   1.357   1_556  S
C500        C501   1.410       .  A
C501        C502   1.409       .  A
C501        F508   1.358       .  S
C502        C503   1.426       .  A
C502        F507   1.354       .  S
C503        C504   1.427       .  A
C504        F505   1.357       .  S
C509        C510   1.423       .  A
C509        C514   1.412       .  A
C509        F516   1.356       .  S
C510        C511   1.431       .  A
C511        C512   1.414       .  A
C511        F518   1.355       .  S
C512        C513   1.404       .  A
C512        F517   1.358   1_556  S
C513        C514   1.409       .  A
C514        F515   1.357       .  S
C519        C520   1.406       .  A
C519        C524   1.408       .  A
C519        F526   1.358       .  S
C520        C521   1.407       .  A
C521        C522   1.415       .  A
C521        F528   1.358       .  S
C522        C523   1.429       .  A
C522        F527   1.355       .  S
C523        C524   1.424       .  A
C524        F525   1.356       .  S
C529        C530   1.409       .  A
C529        C534   1.414       .  A
C529        F536   1.357       .  S
C530        C531   1.408       .  A
C531        C532   1.416       .  A
C531        F538   1.358       .  S
C532        C533   1.430       .  A
C532        F537   1.355       .  S
C533        C534   1.425       .  A
C534        F535   1.356       .  S
C539        C540   1.401       .  A
C539        C544   1.407       .  A
C539        F546   1.357   1_544  S
C540        C541   1.399       .  A
C541        C542   1.403       .  A
C541        F548   1.358       .  S
C542        C543   1.429       .  A
C542        F547   1.355       .  S
C543        C544   1.423       .  A
C544        F545   1.357       .  S
C549        C550   1.423       .  A
C549        C554   1.411       .  A
C549        F556   1.358       .  S
C550        C551   1.432       .  A
C551        C552   1.413   1_554  A
C551        F558   1.354   1_554  S
C552        C553   1.405   1_556  A
C552        F557   1.358       .  S
C553        C554   1.409       .  A
C554        F555   1.357       .  S
C559        C560   1.408       .  A
C559        C564   1.415       .  A
C559        F566   1.357   1_545  S
C560        C561   1.410       .  A
C561        C562   1.410       .  A
C561        F568   1.358       .  S
C562        C563   1.426       .  A
C562        F567   1.354       .  S
C563        C564   1.428       .  A
C564        F565   1.356       .  S
C569        C570   1.405       .  A
C569        C574   1.416       .  A
C569        F576   1.358       .  S
C570        C571   1.409       .  A
C571        C572   1.423       .  A
C571        F578   1.357       .  S
C572        C573   1.427       .  A
C572        F577   1.357       .  S
C573        C574   1.432       .  A
C574        F575   1.355       .  S
C579        C580   1.428       .  A
C579        C584   1.405       .  A
C579        F586   1.355       .  S
C580        C581   1.424       .  A
C581        C582   1.409       .  A
C581        F588   1.357       .  S
C582        C583   1.408       .  A
C582        F587   1.358   1_455  S
C583        C584   1.405       .  A
C584        F585   1.358   1_554  S
C589        C590   1.400       .  A
C589        C594   1.406       .  A
C589        F596   1.358       .  S
C590        C591   1.406       .  A
C591        C592   1.416       .  A
C591        F598   1.357   1_554  S
C592        C593   1.424       .  A
C592        F597   1.357       .  S
C593        C594   1.432       .  A
C594        F595   1.356       .  S
C599        C600   1.408       .  A
C599        C604   1.410       .  A
C599        F606   1.358       .  S
C600        C601   1.406   1_455  A
C601        C602   1.413   1_655  A
C601        F608   1.358       .  S
C602        C603   1.431       .  A
C602        F607   1.354   1_455  S
C603        C604   1.423       .  A
C604        F605   1.357       .  S
C609        C610   1.426       .  A
C609        C614   1.417       .  A
C609        F616   1.356       .  S
C610        C611   1.431       .  A
C611        C612   1.416       .  A
C611        F618   1.354       .  S
C612        C613   1.406       .  A
C612        F617   1.358       .  S
C613        C614   1.411       .  A
C614        F615   1.357       .  S
C619        C620   1.405       .  A
C619        C624   1.406       .  A
C619        F626   1.358   1_455  S
C620        C621   1.404       .  A
C621        C622   1.407       .  A
C621        F628   1.358   1_545  S
C622        C623   1.426       .  A
C622        F627   1.356       .  S
C623        C624   1.425       .  A
C624        F625   1.354       .  S
C629        C630   1.431       .  A
C629        C634   1.407       .  A
C629        F636   1.356       .  S
C630        C631   1.424       .  A
C631        C632   1.415       .  A
C631        F638   1.357       .  S
C632        C633   1.405       .  A
C632        F637   1.357   1_455  S
C633        C634   1.400       .  A
C634        F635   1.358       .  S
C639        C640   1.410       .  A
C639        C644   1.415       .  A
C639        F646   1.358       .  S
C640        C641   1.405   1_545  A
C641        C642   1.416   1_565  A
C641        F648   1.357       .  S
C642        C643   1.430       .  A
C642        F647   1.356       .  S
C643        C644   1.423       .  A
C644        F645   1.357       .  S
C649        C650   1.425       .  A
C649        C654   1.407       .  A
C649        F656   1.357       .  S
C650        C651   1.428       .  A
C651        C652   1.404       .  A
C651        F658   1.355       .  S
C652        C653   1.399       .  A
C652        F657   1.358       .  S
C653        C654   1.401       .  A
C654        F655   1.358   1_556  S
C659        C660   1.426       .  A
C659        C664   1.408       .  A
C659        F666   1.355       .  S
C660        C661   1.425       .  A
C661        C662   1.404       .  A
C661        F668   1.354       .  S
C662        C663   1.402       .  A
C662        F667   1.358       .  S
C663        C664   1.404       .  A
C664        F665   1.358   1_655  S
C669        C670   1.427       .  A
C669        C674   1.407       .  A
C669        F676   1.356       .  S
C670        C671   1.425       .  A
C671        C672   1.407       .  A
C671        F678   1.356       .  S
C672        C673   1.400       .  A
C672        F677   1.358       .  S
C673        C674   1.401       .  A
C674        F675   1.358       .  S
C679        C680   1.423       .  A
C679        C684   1.406       .  A
C679        F686   1.355       .  S
C680        C681   1.427       .  A
C681        C682   1.408       .  A
C681        F688   1.356       .  S
C682        C683   1.407       .  A
C682        F687   1.358   1_556  S
C683        C684   1.406       .  A
C684        F685   1.358   1_655  S
