geometry optimzed in LAMMPS
_audit_creation_date              2020-11-30 
_audit_creation_method            'lammps2cif' 
_symmetry_space_group_name_H-M    'P1' 
_symmetry_Int_Tables_number       1 
_symmetry_cell_setting            triclinic 
loop_ 
_symmetry_equiv_pos_as_xyz 
  x,y,z 
_cell_length_a                    38.01386783 
_cell_length_b                    37.8743901890987 
_cell_length_c                    33.43102068347716 
_cell_angle_alpha                 89.8069530508372 
_cell_angle_beta                  90.1193029842986 
_cell_angle_gamma                 120.21591451187759 
loop_ 
_atom_site_label 
_atom_site_type_symbol 
_atom_site_fract_x 
_atom_site_fract_y 
_atom_site_fract_z 
_atom_site_charge 
C1          C  0.22748655  0.19996453  0.15310113     0.79900
N2          N  0.25835615  0.23205685  0.17225421    -0.78400
C3          C  0.28978759  0.26258606  0.15180867     0.82300
N4          N  0.28967047  0.26107593  0.11131233    -0.78400
C5          C  0.25871567  0.22914732  0.09158957     0.82400
N6          N  0.22750116  0.19850463  0.11253656    -0.80100
C7          C  0.22680069  0.20138120  0.49075926     0.79900
N8          N  0.25526996  0.23533698  0.47168610    -0.78400
C9          C  0.28626280  0.26638916  0.49184922     0.82300
N10         N  0.28673053  0.26312994  0.02781325    -0.78400
C11         C  0.25723702  0.23027773  0.04787748     0.82400
N12         N  0.22498085  0.20043707  0.02760898    -0.80100
C13         C  0.24298591  0.46728172  0.15481389     0.79900
N14         N  0.24315895  0.46558468  0.11419764    -0.78400
C15         C  0.21289922  0.46618709  0.09280631     0.82300
N16         N  0.18257848  0.46842395  0.11217631    -0.78400
C17         C  0.18228956  0.47024324  0.15268422     0.82400
N18         N  0.21275214  0.46985493  0.17351453    -0.80100
C19         C  0.24119467  0.46438854  0.48544915     0.79900
N20         N  0.20668720  0.45844237  0.46733602    -0.78400
C21         C  0.17635030  0.45867243  0.48835119     0.82300
N22         N  0.18165879  0.46482619  0.02860300    -0.78400
C23         C  0.21363161  0.46672250  0.04886712     0.82400
N24         N  0.24649083  0.47087584  0.02835466    -0.80100
C25         C  0.48786461  0.23960994  0.15375109     0.79900
N26         N  0.48358284  0.23825306  0.11338208    -0.78400
C27         C  0.48399812  0.20774216  0.09231467     0.82300
N28         N  0.48808793  0.17837069  0.11192199    -0.78400
C29         C  0.49240360  0.17978830  0.15235670     0.82400
N30         N  0.49231791  0.21055176  0.17272360    -0.80100
C31         C  0.48209669  0.23708599  0.48949584     0.79900
N32         N  0.47609694  0.23567879  0.02866136    -0.78400
C33         C  0.47997693  0.20636064  0.04855150     0.82300
N34         N  0.48033945  0.17570254  0.02777160    -0.78400
C35         C  0.48443565  0.17590473  0.49080755     0.82400
N36         N  0.48629594  0.20784724  0.47047965    -0.80100
O37         O  0.39932361  0.01623097  0.27702500    -0.88500
C38         C  0.10696891  0.08761982  0.38096450     1.11500
O39         O  0.43967971  0.47074770  0.32060395    -1.36300
O40         O  0.08194044  0.09690363  0.27938514    -0.90000
O41         O  0.35967320  0.43563281  0.27179265    -0.93400
O42         O  0.44150085  0.42851577  0.23503772    -0.79500
O43         O  0.48931844  0.05694595  0.28540458    -1.01600
C44         C  0.05654289  0.47323848  0.24839521     1.21600
O45         O  0.48310487  0.42971349  0.32083366    -1.36500
Mn46       Mn  0.48193842  0.47108889  0.36503557     1.82100
O47         O  0.02519359  0.47297255  0.23611200    -0.78600
O48         O  0.11111173  0.05847200  0.27677067    -0.88000
C49         C  0.05255212  0.46570151  0.39450119     1.12600
C50         C  0.10749115  0.08838124  0.26463624     1.07400
O51         O  0.43884435  0.42781118  0.40548111    -0.79500
O52         O  0.02852346  0.01502396  0.32195991    -1.33200
O53         O  0.40302889  0.39189662  0.35730243    -0.98700
C54         C  0.48482115  0.35459180  0.26336721     1.06100
Mn55       Mn  0.08387987  0.01437645  0.32230652     1.48600
O56         O  0.45063169  0.34629735  0.27812153    -0.87900
Mn57       Mn  0.38282086  0.41602063  0.31836538     1.49600
O58         O  0.39804835  0.01566517  0.36648303    -0.91800
C59         C  0.48919383  0.05172276  0.24940388     1.19300
C60         C  0.36115646  0.46755012  0.37687214     1.11300
Mn61       Mn  0.48292720  0.47229312  0.27691371     1.81000
O62         O  0.05856517  0.46721160  0.35862694    -0.97000
Mn63       Mn  0.44305500  0.03349387  0.32228712     1.49300
C64         C  0.36356649  0.46992144  0.26219527     1.07800
Mn65       Mn  0.03185264  0.42359442  0.31919684     1.49900
C66         C  0.48442155  0.35485451  0.37914960     1.10800
O67         O  0.40601256  0.39227409  0.28310919    -1.02800
O68         O  0.11144139  0.05897884  0.36688945    -0.92400
C69         C  0.41073827  0.39645647  0.24721445     1.22000
O70         O  0.05971833  0.47106213  0.28428511    -1.03100
O71         O  0.08015354  0.09542164  0.36822600    -0.90500
O72         O  0.00936897  0.37675404  0.36123161    -0.90200
O73         O  0.35499268  0.43454528  0.36074499    -0.90200
Mn74       Mn  0.03696806  0.07442594  0.32301346     1.47900
O75         O  0.02361799  0.47001468  0.40626454    -0.78700
C76         C  0.40695996  0.39708557  0.39327161     1.15100
O77         O  0.48592415  0.01883911  0.23753305    -0.77400
O78         O  0.48545462  0.01733552  0.40734943    -0.77000
Mn79       Mn  0.42973612  0.37160267  0.32159458     1.51100
O80         O  0.00920353  0.38126254  0.27241459    -0.89300
O81         O  0.48842917  0.05599712  0.36023998    -0.96900
O82         O  0.44972803  0.34876363  0.36820159    -0.91900
C83         C  0.48785595  0.05011069  0.39606760     1.12900
C84         C  0.48885107  0.14418295  0.46898752    -0.05800
C85         C  0.47119725  0.10398938  0.48401035    -0.33200
C86         C  0.47207795  0.07297720  0.46168906     0.36000
C87         C  0.49062455  0.08194920  0.42371844    -0.06200
C88         C  0.50999591  0.12248126  0.40985356    -0.33100
C89         C  0.50932643  0.15331299  0.43194081     0.35900
H90         H  0.46700012  0.10137721  0.01498332     0.16300
O91         O  0.45249249  0.03371839  0.47608853    -0.60600
H92         H  0.02818954  0.13045370  0.38127389     0.16300
O93         O  0.03029741  0.19189133  0.41724072    -0.60700
H94         H  0.01299414  0.19277541  0.39547644     0.43300
H95         H  0.47308200  0.03159706  0.49253921     0.43200
C96         C  0.48547621  0.27166221  0.46603479    -0.05800
C97         C  0.51612993  0.28948878  0.43703739    -0.33200
C98         C  0.51743567  0.31842502  0.41025233     0.36000
C99         C  0.48666031  0.32886585  0.41103219    -0.06200
C100        C  0.45706839  0.31258623  0.44141248    -0.33100
C101        C  0.45673011  0.28455880  0.46926205     0.35900
H102        H  0.52237569  0.31560127  0.99131154     0.16300
O103        O  0.54738813  0.33410990  0.38166625    -0.60600
H104        H  0.43377983  0.32102933  0.44313329     0.16300
O105        O  0.42732250  0.26875296  0.49836967    -0.60700
H106        H  0.40238121  0.24757944  0.48479396     0.43300
H107        H  0.57077941  0.35798489  0.39446437     0.43200
C108        C  0.49549297  0.14763503  0.17493775    -0.05800
C109        C  0.47981605  0.10814565  0.15897430    -0.33200
C110        C  0.47822763  0.07637097  0.18225860     0.36000
C111        C  0.49295552  0.08410040  0.22188233    -0.06200
C112        C  0.00005494  0.12041673  0.23973492    -0.33100
C113        C  0.99813618  0.15097011  0.21865627     0.35900
H114        H  0.46725221  0.10143832  0.12901305     0.16300
O115        O  0.46098406  0.03781208  0.16648492    -0.60600
H116        H  0.00594318  0.12501697  0.27158182     0.16300
O117        O  0.00431812  0.18494169  0.23922739    -0.60700
H118        H  0.97798517  0.17681012  0.25247391     0.43300
H119        H  0.43168119  0.02451915  0.17344674     0.43200
C120        C  0.48641680  0.32712913  0.23314424    -0.05800
C121        C  0.45478491  0.30696723  0.20525102    -0.33200
C122        C  0.45575545  0.27972338  0.17754272     0.36000
C123        C  0.48847360  0.27226964  0.17782511    -0.06200
C124        C  0.52004851  0.29251622  0.20551452    -0.33100
C125        C  0.51930603  0.31973263  0.23296166     0.35900
H126        H  0.42914741  0.31200657  0.20522207     0.16300
O127        O  0.42383999  0.25925228  0.15157488    -0.60600
H128        H  0.54497289  0.28635461  0.20653045     0.16300
O129        O  0.55014470  0.33766005  0.26054966    -0.60700
H130        H  0.54049989  0.31914911  0.28413353     0.43300
H131        H  0.40479777  0.23337059  0.16542647     0.43200
C132        C  0.27304683  0.46357708  0.46054354    -0.05800
C133        C  0.26079066  0.43730982  0.42739356    -0.33200
C134        C  0.28928205  0.43767169  0.40081042     0.36000
C135        C  0.33113901  0.46514422  0.40654867    -0.06200
C136        C  0.34362912  0.49146570  0.43971301    -0.33100
C137        C  0.31497033  0.49055110  0.46685789     0.35900
H138        H  0.22873642  0.41660519  0.42167415     0.16300
O139        O  0.27564424  0.41293462  0.36775403    -0.60600
H140        H  0.37562781  0.51305242  0.44436977     0.16300
O141        O  0.28729070  0.53725696  0.92958600    -0.60700
H142        H  0.26730925  0.52688747  0.90736767     0.43300
H143        H  0.27092903  0.38601903  0.37703361     0.43200
C144        C  0.14001849  0.45436760  0.46703725    -0.05800
C145        C  0.11581227  0.46870019  0.48444777    -0.33200
C146        C  0.08528311  0.47045878  0.46219814     0.36000
C147        C  0.07925905  0.45861612  0.42172396    -0.06200
C148        C  0.10124885  0.44133696  0.40555373    -0.33100
C149        C  0.13079385  0.43858768  0.42782573     0.35900
H150        H  0.12362935  0.48293466  0.01500342     0.16300
O151        O  0.06364779  0.48639499  0.47948493    -0.60600
H152        H  0.10488488  0.94177874  0.37503468     0.16300
O153        O  0.16385778  0.93919692  0.40970659    -0.60700
H154        H  0.15105662  0.91006112  0.41773299     0.43300
H155        H  0.03937572  0.46261435  0.49138156     0.43200
C156        C  0.33524286  0.47092727  0.23235920    -0.05800
C157        C  0.32152883  0.44411901  0.19950121    -0.33200
C158        C  0.29272272  0.44364745  0.17264736     0.36000
C159        C  0.27642781  0.46932455  0.17928378    -0.06200
C160        C  0.29029269  0.49599562  0.21203933    -0.33100
C161        C  0.31956013  0.49723648  0.23814029     0.35900
H162        H  0.33291293  0.42334059  0.19484362     0.16300
O163        O  0.27882776  0.41625046  0.14168674    -0.60600
H164        H  0.27792873  0.51577356  0.21781431     0.16300
O165        O  0.33047204  0.52231165  0.27091120    -0.60700
H166        H  0.35226934  0.54934489  0.26133670     0.43300
H167        H  0.29902808  0.42971432  0.11994412     0.43200
C168        C  0.15022713  0.47384246  0.17477784    -0.05800
C169        C  0.15727623  0.48533067  0.21512921    -0.33200
C170        C  0.12749926  0.48608861  0.23862610     0.36000
C171        C  0.08936500  0.47611883  0.22198104    -0.06200
C172        C  0.08294059  0.46716231  0.18093577    -0.33100
C173        C  0.11271189  0.46523214  0.15748390     0.35900
H174        H  0.18601465  0.49322912  0.22918960     0.16300
O175        O  0.13645837  0.49719378  0.27802044    -0.60600
H176        H  0.05407014  0.45964775  0.16744237     0.16300
O177        O  0.10421690  0.45376393  0.11818475    -0.60700
H178        H  0.09073698  0.42353602  0.11847245     0.43300
H179        H  0.13219195  0.47226888  0.29211262     0.43200
C180        C  0.31638269  0.30323902  0.46930320    -0.05800
C181        C  0.30811560  0.30667193  0.42901129    -0.33200
C182        C  0.33667541  0.33776526  0.40477072     0.36000
C183        C  0.37492995  0.36698060  0.42039675    -0.06200
C184        C  0.38240748  0.36558315  0.46141880    -0.33100
C185        C  0.35334713  0.33417858  0.48595707     0.35900
H186        H  0.27948422  0.28453795  0.41549897     0.16300
O187        O  0.32665220  0.33906211  0.36556548    -0.60600
H188        H  0.41125615  0.38809763  0.47426227     0.16300
O189        O  0.36217049  0.33334468  0.52560686    -0.60700
H190        H  0.36380170  0.33848385  0.03592153     0.43300
H191        H  0.32992035  0.31766927  0.35192711     0.43200
C192        C  0.13513988  0.11460269  0.41238123    -0.05800
C193        C  0.14102856  0.15414928  0.41646510    -0.33200
C194        C  0.17001214  0.18206779  0.44292723     0.36000
C195        C  0.19260453  0.17030570  0.46723213    -0.06200
C196        C  0.18571479  0.13039785  0.46474436    -0.33100
C197        C  0.15777768  0.10279694  0.43693181     0.35900
H198        H  0.12434803  0.16422232  0.39786432     0.16300
O199        O  0.17627684  0.22102887  0.44475012    -0.60600
H200        H  0.20348663  0.12129734  0.48288033     0.16300
O201        O  0.15300739  0.06455047  0.43394696    -0.60700
H202        H  0.17541427  0.06782564  0.41631161     0.43300
H203        H  0.19408381  0.23567459  0.42164187     0.43200
C204        C  0.32166340  0.29824417  0.17413453    -0.05800
C205        C  0.31318683  0.30346980  0.21368916    -0.33200
C206        C  0.34138494  0.33583609  0.23670105     0.36000
C207        C  0.37988515  0.36431795  0.22079756    -0.06200
C208        C  0.38851633  0.35991321  0.18087182    -0.33100
C209        C  0.35978022  0.32701108  0.15755942     0.35900
H210        H  0.28415799  0.28242016  0.22728172     0.16300
O211        O  0.33084560  0.33887484  0.27521544    -0.60600
H212        H  0.41789309  0.38123539  0.16810720     0.16300
O213        O  0.36962146  0.32304511  0.11905681    -0.60700
H214        H  0.38038250  0.30403420  0.12080322     0.43300
H215        H  0.31394176  0.35197451  0.27301325     0.43200
C216        C  0.13503563  0.11567390  0.23289669    -0.05800
C217        C  0.15208712  0.10113640  0.20460642    -0.33200
C218        C  0.18064721  0.12780418  0.17649591     0.36000
C219        C  0.19287383  0.16956444  0.17696233    -0.06200
C220        C  0.17493711  0.18373634  0.20425318    -0.33100
C221        C  0.14589733  0.15723753  0.23160293     0.35900
H222        H  0.14383172  0.06927160  0.20473490     0.16300
O223        O  0.19771836  0.11319470  0.14997481    -0.60600
H224        H  0.18426834  0.21589888  0.20500569     0.16300
O225        O  0.13048830  0.17303894  0.25873989    -0.60700
H226        H  0.10734073  0.17295803  0.24485792     0.43300
H227        H  0.22064763  0.11365898  0.16465965     0.43200
C228        C  0.22741738  0.20261263  0.65755865     0.79900
N229        N  0.25669878  0.23681021  0.67587957    -0.78400
C230        C  0.28794735  0.26696901  0.65483728     0.82300
N231        N  0.28927345  0.26298624  0.61476804    -0.78400
C232        C  0.26004998  0.22926438  0.59574470     0.82400
N233        N  0.22897316  0.19889426  0.61717952    -0.80100
C234        C  0.22212007  0.20378523  0.98748622     0.79900
N235        N  0.25155421  0.23681834  0.96780072    -0.78400
C236        C  0.28423598  0.26651895  0.98764703     0.82300
N237        N  0.28831346  0.26315639  0.53208096    -0.78400
C238        C  0.25975841  0.22924815  0.55184568     0.82400
N239        N  0.22885196  0.19821077  0.53109022    -0.80100
C240        C  0.25199425  0.48201232  0.65195218     0.79900
N241        N  0.25009074  0.47781666  0.61149422    -0.78400
C242        C  0.21815495  0.47595932  0.59103246     0.82300
N243        N  0.18784281  0.47740137  0.61133583    -0.78400
C244        C  0.18940089  0.48126506  0.65176747     0.82400
N245        N  0.22178225  0.48379835  0.67164547    -0.80100
C246        C  0.24744927  0.47390331  0.98775444     0.79900
N247        N  0.21531491  0.47192528  0.96810077    -0.78400
C248        C  0.18209399  0.46686872  0.98810191     0.82300
N249        N  0.18082899  0.46503076  0.52841372    -0.78400
C250        C  0.21502337  0.47065714  0.54730585     0.82400
N251        N  0.24540454  0.47055959  0.52571135    -0.80100
C252        C  0.47409328  0.23385495  0.65529679     0.79900
N253        N  0.47150789  0.23270058  0.61473908    -0.78400
C254        C  0.47298345  0.20239515  0.59434256     0.82300
N255        N  0.47707703  0.17352548  0.61463629    -0.78400
C256        C  0.48002781  0.17477055  0.65507096     0.82400
N257        N  0.47871417  0.20515818  0.67508047    -0.80100
C258        C  0.47144246  0.23359118  0.98828908     0.79900
N259        N  0.47634347  0.23468444  0.52968520    -0.78400
C260        C  0.47474911  0.20300186  0.55053671     0.82300
N261        N  0.47862996  0.17363582  0.53099476    -0.78400
C262        C  0.47642944  0.17382291  0.98732520     0.82400
N263        N  0.47159627  0.20271152  0.96805230    -0.80100
O264        O  0.39749379  0.01336543  0.77475027    -0.88500
C265        C  0.09991446  0.08756827  0.88155633     1.11500
O266        O  0.44150445  0.47677412  0.82071919    -1.36300
O267        O  0.07545018  0.09698091  0.77919663    -0.90000
O268        O  0.35995544  0.44667570  0.77590189    -0.93400
O269        O  0.44017782  0.43381875  0.73517920    -0.79500
O270        O  0.48774052  0.05536437  0.78436936    -1.01600
C271        C  0.05649021  0.46966237  0.74830901     1.21600
O272        O  0.48041413  0.43126767  0.82101209    -1.36500
Mn273      Mn  0.48203535  0.47421648  0.86520550     1.82100
O274        O  0.02616975  0.47144131  0.73593157    -0.78600
O275        O  0.10626771  0.05986800  0.77801629    -0.88000
C276        C  0.05441047  0.46730394  0.89416743     1.12600
C277        C  0.10221266  0.08942718  0.76554062     1.07400
O278        O  0.43798791  0.43097263  0.90536261    -0.79500
O279        O  0.02366295  0.01421517  0.82237402    -1.33200
O280        O  0.40149792  0.39672339  0.85669540    -0.98700
C281        C  0.47777520  0.35443785  0.76237514     1.06100
Mn282      Mn  0.07970131  0.01507848  0.82294886     1.48600
O283        O  0.44373331  0.34998902  0.77343838    -0.87900
Mn284      Mn  0.38284965  0.42428443  0.82029805     1.49600
O285        O  0.39511650  0.01188368  0.86426224    -0.91800
C286        C  0.48815496  0.05079432  0.74845357     1.19300
C287        C  0.36770930  0.47967537  0.87918644     1.11300
Mn288      Mn  0.48331412  0.47523739  0.77722581     1.81000
O289        O  0.05881142  0.46707967  0.85824489    -0.97000
Mn290      Mn  0.44086049  0.03097058  0.82041719     1.49300
C291        C  0.36822334  0.48150299  0.76256210     1.07800
Mn292      Mn  0.03173130  0.42167139  0.82080869     1.49900
C293        C  0.47426968  0.35253155  0.87905549     1.10800
O294        O  0.40227234  0.39880327  0.78260151    -1.02800
O295        O  0.10536187  0.05938177  0.86790116    -0.92400
C296        C  0.40731024  0.40380191  0.74680690     1.22000
O297        O  0.05977825  0.46813474  0.78426089    -1.03100
O298        O  0.07291641  0.09481387  0.86810637    -0.90500
O299        O  0.00889976  0.37663588  0.86583965    -0.90200
O300        O  0.36022757  0.44510539  0.86602866    -0.90200
Mn301      Mn  0.02959820  0.07285122  0.82278082     1.47900
O302        O  0.02497144  0.47056920  0.90626336    -0.78700
C303        C  0.40612777  0.40039754  0.89268506     1.15100
O304        O  0.48617417  0.01855090  0.73635017    -0.77400
O305        O  0.48273834  0.01620658  0.90668889    -0.77000
Mn306      Mn  0.42479892  0.37495409  0.81895511     1.51100
O307        O  0.00897004  0.37714911  0.77515232    -0.89300
O308        O  0.48579576  0.05324062  0.85837989    -0.96900
O309        O  0.44154162  0.34708871  0.86311089    -0.91900
C310        C  0.48425775  0.04832227  0.89431149     1.12900
C311        C  0.47870745  0.14147522  0.96414783    -0.05800
C312        C  0.47335046  0.10578615  0.98321859    -0.33200
C313        C  0.47545394  0.07505548  0.96151927     0.36000
C314        C  0.48330643  0.07981990  0.92011152    -0.06200
C315        C  0.48914362  0.11576195  0.90144869    -0.33100
C316        C  0.48666008  0.14600223  0.92268768     0.35900
H317        H  0.45540378  0.09621847  0.51244643     0.16300
O318        O  0.46861208  0.04019773  0.98086868    -0.60600
H319        H  0.01341273  0.12623275  0.87770795     0.16300
O320        O  0.01486938  0.18737539  0.91288635    -0.60700
H321        H  0.99444280  0.18607601  0.89354889     0.43300
H322        H  0.49551260  0.04659713  0.99159949     0.43200
C323        C  0.46821013  0.26532324  0.96555177    -0.05800
C324        C  0.49864687  0.30651184  0.96901519    -0.33200
C325        C  0.50037920  0.33578359  0.94195400     0.36000
C326        C  0.47099236  0.32402905  0.91129283    -0.06200
C327        C  0.43873277  0.28341522  0.91015250    -0.33100
C328        C  0.43759876  0.25409098  0.93648838     0.35900
H329        H  0.53878630  0.28024342  0.43456908     0.16300
O330        O  0.53146501  0.37545706  0.94514646    -0.60600
H331        H  0.41539686  0.27376374  0.88735311     0.16300
O332        O  0.40662092  0.21430993  0.93335972    -0.60700
H333        H  0.41455442  0.20259485  0.91101516     0.43300
H334        H  0.52016337  0.38934450  0.96130815     0.43200
C335        C  0.48555780  0.14395235  0.67717787    -0.05800
C336        C  0.47162055  0.10493094  0.66072632    -0.33200
C337        C  0.47372237  0.07439157  0.68269525     0.36000
C338        C  0.49012466  0.08279456  0.72158799    -0.06200
C339        C  0.00505645  0.12173384  0.73458963    -0.33100
C340        C  0.00292126  0.15174144  0.71211171     0.35900
H341        H  0.45777499  0.09759069  0.63131417     0.16300
O342        O  0.45837987  0.03622849  0.66643839    -0.60600
H343        H  0.02025907  0.13009681  0.76336010     0.16300
O344        O  0.02185046  0.19106040  0.72625392    -0.60700
H345        H  0.00345907  0.19121875  0.74714761     0.43300
H346        H  0.42922803  0.02114732  0.67414645     0.43200
C347        C  0.47856894  0.32683928  0.73141859    -0.05800
C348        C  0.44503711  0.30499271  0.70578375    -0.33200
C349        C  0.44382537  0.27578633  0.67918080     0.36000
C350        C  0.47628009  0.26799564  0.67817610    -0.06200
C351        C  0.51021311  0.29059460  0.70266365    -0.33100
C352        C  0.51177197  0.31989469  0.72890918     0.35900
H353        H  0.41929227  0.30982805  0.70700139     0.16300
O354        O  0.41013172  0.25382295  0.65563594    -0.60600
H355        H  0.53534348  0.28473405  0.70214999     0.16300
O356        O  0.54538592  0.34038586  0.75296218    -0.60700
H357        H  0.53959355  0.32274979  0.77693801     0.43300
H358        H  0.39083989  0.23041923  0.67244751     0.43200
C359        C  0.28253424  0.47893302  0.96422671    -0.05800
C360        C  0.29608114  0.45083710  0.96838240    -0.33200
C361        C  0.32471722  0.45127710  0.94160014     0.36000
C362        C  0.34093445  0.48076240  0.91072809    -0.06200
C363        C  0.32905793  0.51028874  0.90823328    -0.33100
C364        C  0.29954745  0.50902520  0.93410030     0.35900
H365        H  0.28296123  0.42726345  0.99115267     0.16300
O366        O  0.33586383  0.42218563  0.94529449    -0.60600
H367        H  0.34112297  0.53321465  0.88479223     0.16300
O368        O  0.32819728  0.51713743  0.49848834    -0.60700
H369        H  0.32923325  0.54223491  0.48824616     0.43300
H370        H  0.35965481  0.43425514  0.96363298     0.43200
C371        C  0.14703172  0.46389852  0.96561724    -0.05800
C372        C  0.11983697  0.47398363  0.98384384    -0.33200
C373        C  0.08843078  0.47415789  0.96166613     0.36000
C374        C  0.08407716  0.46429849  0.92067858    -0.06200
C375        C  0.11014909  0.45243127  0.90326480    -0.33100
C376        C  0.14097392  0.45188630  0.92517988     0.35900
H377        H  0.12166408  0.48025102  0.51478097     0.16300
O378        O  0.06360255  0.48581677  0.97985291    -0.60600
H379        H  0.10314129  0.94335322  0.87357878     0.16300
O380        O  0.16259001  0.94050921  0.90648002    -0.60700
H381        H  0.15011634  0.91103872  0.91301837     0.43300
H382        H  0.04070430  0.46027831  0.99097187     0.43200
C383        C  0.34188177  0.48357656  0.73090805    -0.05800
C384        C  0.32117964  0.45107256  0.70385450    -0.33200
C385        C  0.29369697  0.45137145  0.67586202     0.36000
C386        C  0.28584840  0.48394789  0.67538595    -0.06200
C387        C  0.30712178  0.51670679  0.70168703    -0.33100
C388        C  0.33533889  0.51707491  0.72880679     0.35900
H389        H  0.32579864  0.42508403  0.70482998     0.16300
O390        O  0.27245010  0.41836001  0.65124815    -0.60600
H391        H  0.30101451  0.54174467  0.70190171     0.16300
O392        O  0.35408034  0.54903078  0.75509195    -0.60700
H393        H  0.37860429  0.57011387  0.74077527     0.43300
H394        H  0.29079647  0.42323280  0.62823982     0.43200
C395        C  0.15480447  0.47895404  0.67494301    -0.05800
C396        C  0.15084263  0.46731582  0.71526967    -0.33200
C397        C  0.11865204  0.46323813  0.73853116     0.36000
C398        C  0.08899818  0.47125096  0.72207395    -0.06200
C399        C  0.09271210  0.48299701  0.68162268    -0.33100
C400        C  0.12527810  0.48687196  0.65807734     0.35900
H401        H  0.17264600  0.46065357  0.72914218     0.16300
O402        O  0.11693684  0.45165511  0.77775638    -0.60600
H403        H  0.07090434  0.49004608  0.66844688     0.16300
O404        O  0.12884934  0.50011159  0.61927581    -0.60700
H405        H  0.11099962  0.47528381  0.60350962     0.43300
H406        H  0.10026385  0.42144048  0.77763956     0.43200
C407        C  0.31579414  0.30263334  0.96541023    -0.05800
C408        C  0.30582452  0.31141612  0.92771117    -0.33200
C409        C  0.33466024  0.34369877  0.90461784     0.36000
C410        C  0.37473828  0.36865359  0.91900955    -0.06200
C411        C  0.38469222  0.36084442  0.95721520    -0.33100
C412        C  0.35558402  0.32813329  0.98042609     0.35900
H413        H  0.27538686  0.29302496  0.91569295     0.16300
O414        O  0.32296748  0.35100720  0.86810531    -0.60600
H415        H  0.41538412  0.37928947  0.96860286     0.16300
O416        O  0.36699963  0.32031669  0.01680133    -0.60700
H417        H  0.35223439  0.34984226  0.53935067     0.43300
H418        H  0.32320003  0.33058681  0.84976465     0.43200
C419        C  0.12758130  0.11496136  0.91300749    -0.05800
C420        C  0.13368860  0.15468694  0.91606845    -0.33200
C421        C  0.16360009  0.18345450  0.94132485     0.36000
C422        C  0.18712812  0.17245542  0.96503309    -0.06200
C423        C  0.17928639  0.13214522  0.96435807    -0.33100
C424        C  0.15014790  0.10354739  0.93809910     0.35900
H425        H  0.11657185  0.16421961  0.89745286     0.16300
O426        O  0.16963717  0.22232740  0.94275033    -0.60600
H427        H  0.19714862  0.12336449  0.98276333     0.16300
O428        O  0.14400825  0.06466559  0.93723523    -0.60700
H429        H  0.16674027  0.06650544  0.92109464     0.43300
H430        H  0.18694120  0.23666166  0.91927454     0.43200
C431        C  0.31833585  0.30487474  0.67540569    -0.05800
C432        C  0.30785228  0.31420189  0.71240433    -0.33200
C433        C  0.33575595  0.34804561  0.73425906     0.36000
C434        C  0.37576923  0.37330833  0.71981779    -0.06200
C435        C  0.38581072  0.36567445  0.68169232    -0.33100
C436        C  0.35740940  0.33171362  0.65943673     0.35900
H437        H  0.27777666  0.29495878  0.72490846     0.16300
O438        O  0.32389502  0.35525390  0.77061414    -0.60600
H439        H  0.41626186  0.38477240  0.66998406     0.16300
O440        O  0.36872068  0.32443271  0.62286093    -0.60700
H441        H  0.38093613  0.30717074  0.62854461     0.43300
H442        H  0.30596589  0.36656490  0.76430062     0.43200
C443        C  0.13117842  0.11747449  0.73493454    -0.05800
C444        C  0.14746261  0.10289766  0.70584106    -0.33200
C445        C  0.17761793  0.12990796  0.67903937     0.36000
C446        C  0.19249909  0.17222969  0.68167096    -0.06200
C447        C  0.17560860  0.18654240  0.71016092    -0.33100
C448        C  0.14494560  0.15968229  0.73617178     0.35900
H449        H  0.13723127  0.07057986  0.70426868     0.16300
O450        O  0.19340613  0.11483005  0.65156676    -0.60600
H451        H  0.18666832  0.21899643  0.71265350     0.16300
O452        O  0.13068102  0.17547345  0.76452077    -0.60700
H453        H  0.10891241  0.17813802  0.75095160     0.43300
H454        H  0.21534685  0.11308724  0.66592129     0.43200
C455        C  0.22934337  0.70202012  0.15689049     0.79900
N456        N  0.25886886  0.73550722  0.17569037    -0.78400
C457        C  0.28979980  0.76617618  0.15491966     0.82300
N458        N  0.29047650  0.76350835  0.11450304    -0.78400
C459        C  0.26072809  0.73028596  0.09510043     0.82400
N460        N  0.23007923  0.69943427  0.11640027    -0.80100
C461        C  0.22481971  0.70520094  0.48844289     0.79900
N462        N  0.25329418  0.73952891  0.46952319    -0.78400
C463        C  0.28488622  0.76977053  0.49002090     0.82300
N464        N  0.28819385  0.76356137  0.03073143    -0.78400
C465        C  0.25942261  0.73039677  0.05117989     0.82400
N466        N  0.22779181  0.69939047  0.03107767    -0.80100
C467        C  0.25270002  0.98193096  0.15281715     0.79900
N468        N  0.25101872  0.97868570  0.11226891    -0.78400
C469        C  0.21845852  0.97571545  0.09203675     0.82300
N470        N  0.18738604  0.97527617  0.11260872    -0.78400
C471        C  0.18861169  0.97812374  0.15312051     0.82400
N472        N  0.22159165  0.98174198  0.17284738    -0.80100
C473        C  0.24974781  0.98006991  0.48851372     0.79900
N474        N  0.21734517  0.97756993  0.46882102    -0.78400
C475        C  0.18411889  0.97247186  0.48901248     0.82300
N476        N  0.18408559  0.97086346  0.02837389    -0.78400
C477        C  0.21675193  0.97348510  0.04805897     0.82400
N478        N  0.24806068  0.97503601  0.02688460    -0.80100
C479        C  0.47257336  0.73320336  0.15412766     0.79900
N480        N  0.47566750  0.73498931  0.11361910    -0.78400
C481        C  0.47681159  0.70454615  0.09321176     0.82300
N482        N  0.47568805  0.67278803  0.11356776    -0.78400
C483        C  0.47267549  0.67078207  0.15408955     0.82400
N484        N  0.47098000  0.70112271  0.17402818    -0.80100
C485        C  0.47206493  0.72932708  0.48512399     0.79900
N486        N  0.47832916  0.73601532  0.02814268    -0.78400
C487        C  0.47896453  0.70548962  0.04930299     0.82300
N488        N  0.48185143  0.67560824  0.02968239    -0.78400
C489        C  0.47667290  0.66948730  0.48831770     0.82400
N490        N  0.47571502  0.69943070  0.46696281    -0.80100
O491        O  0.38938046  0.50340386  0.27851244    -0.88500
C492        C  0.10391656  0.58762429  0.38145354     1.11500
O493        O  0.44264834  0.97718395  0.32198136    -1.36300
O494        O  0.07850345  0.59666065  0.27772956    -0.90000
O495        O  0.36183313  0.94807513  0.27629041    -0.93400
O496        O  0.43991037  0.93291718  0.23687275    -0.79500
O497        O  0.48017793  0.55021210  0.28433691    -1.01600
C498        C  0.05698782  0.96920370  0.24961887     1.21600
O499        O  0.48075097  0.93066039  0.32146547    -1.36500
Mn500      Mn  0.48346260  0.97411645  0.36567875     1.82100
O501        O  0.02731134  0.97188576  0.23677982    -0.78600
O502        O  0.11079099  0.56114685  0.27979591    -0.88000
C503        C  0.05461244  0.96873858  0.39550140     1.12600
C504        C  0.10611313  0.58973448  0.26571809     1.07400
O505        O  0.43969601  0.93205245  0.40667089    -0.79500
O506        O  0.02674952  0.51518152  0.32184402    -1.33200
O507        O  0.40166765  0.89761917  0.35897355    -0.98700
C508        C  0.47533225  0.85308668  0.26191712     1.06100
Mn509      Mn  0.08243139  0.51506967  0.32312957     1.48600
O510        O  0.44228900  0.84794871  0.27693350    -0.87900
Mn511      Mn  0.38359395  0.92527186  0.32174339     1.49600
O512        O  0.39095044  0.50245246  0.36763163    -0.91800
C513        C  0.47977663  0.54534992  0.24832336     1.19300
C514        C  0.36909398  0.98223330  0.38013567     1.11300
Mn515      Mn  0.48368181  0.97484645  0.27784467     1.81000
O516        O  0.05947627  0.96860816  0.35968854    -0.97000
Mn517      Mn  0.43495776  0.52400537  0.32221858     1.49300
C518        C  0.37036780  0.98308575  0.26303183     1.07800
Mn519      Mn  0.03247980  0.92276776  0.32313018     1.49900
C520        C  0.47644940  0.85118977  0.37785635     1.10800
O521        O  0.40229066  0.89814989  0.28485281    -1.02800
O522        O  0.10787693  0.55794630  0.36946475    -0.92400
C523        C  0.40751380  0.90253448  0.24895267     1.22000
O524        O  0.06026317  0.96829221  0.28564937    -1.03100
O525        O  0.07816234  0.59600501  0.36652397    -0.90500
O526        O  0.00905970  0.87836264  0.36856414    -0.90200
O527        O  0.36107701  0.94745521  0.36689793    -0.90200
Mn528      Mn  0.03384008  0.57412605  0.32185860     1.47900
O529        O  0.02432912  0.97070498  0.40713104    -0.78700
C530        C  0.40682343  0.90225529  0.39483175     1.15100
O531        O  0.48195462  0.51513525  0.23615158    -0.77400
O532        O  0.48088901  0.51269026  0.40636756    -0.77000
Mn533      Mn  0.42476758  0.87466640  0.32198851     1.51100
O534        O  0.01058237  0.87785944  0.27922715    -0.89300
O535        O  0.48107629  0.54973593  0.35894866    -0.96900
O536        O  0.44273423  0.84774834  0.36692229    -0.91900
C537        C  0.48164260  0.54455146  0.39480127     1.12900
C538        C  0.48172918  0.63800992  0.46714179    -0.05800
C539        C  0.46512206  0.59817070  0.48275356    -0.33200
C540        C  0.46640986  0.56732998  0.46058102     0.36000
C541        C  0.48402223  0.57619122  0.42218525    -0.06200
C542        C  0.50245274  0.61643431  0.40780784    -0.33100
C543        C  0.50167843  0.64712273  0.42983519     0.35900
H544        H  0.45195526  0.59626498  0.00959721     0.16300
O545        O  0.44810702  0.52831330  0.47554757    -0.60600
H546        H  0.01487192  0.62854997  0.37705665     0.16300
O547        O  0.01251919  0.68782405  0.41200654    -0.60700
H548        H  0.99171315  0.68503603  0.39234705     0.43300
H549        H  0.46988650  0.52663347  0.49025976     0.43200
C550        C  0.47422223  0.76267084  0.46025706    -0.05800
C551        C  0.50134337  0.77678776  0.42786241    -0.33200
C552        C  0.50301115  0.80638160  0.40175478     0.36000
C553        C  0.47648342  0.82187414  0.40709479    -0.06200
C554        C  0.44944148  0.80803940  0.43962967    -0.33100
C555        C  0.44845418  0.77886853  0.46640357     0.35900
H556        H  0.53597114  0.77981893  0.93178709     0.16300
O557        O  0.52904571  0.81814447  0.36968199    -0.60600
H558        H  0.42893375  0.81967721  0.44415378     0.16300
O559        O  0.42134881  0.76545857  0.49757142    -0.60700
H560        H  0.39534254  0.74370942  0.48610721     0.43300
H561        H  0.55596314  0.83891412  0.38035635     0.43200
C562        C  0.47185566  0.63628402  0.17658030    -0.05800
C563        C  0.48792207  0.61326456  0.15965433    -0.33200
C564        C  0.48979245  0.58251503  0.18182206     0.36000
C565        C  0.47561093  0.57448810  0.22158776    -0.06200
C566        C  0.00829563  0.62273051  0.23463901    -0.33100
C567        C  0.00625744  0.65293087  0.21251542     0.35900
H568        H  0.50017748  0.61988541  0.12958151     0.16300
O569        O  0.50761292  0.56233357  0.16513687    -0.60600
H570        H  0.02368217  0.63090983  0.26332592     0.16300
O571        O  0.02517091  0.69208560  0.22711085    -0.60700
H572        H  0.00668703  0.69203693  0.24801971     0.43300
H573        H  0.48502106  0.53787636  0.15222114     0.43200
C574        C  0.47306840  0.82497232  0.22969080    -0.05800
C575        C  0.43827249  0.78592113  0.22696336    -0.33200
C576        C  0.43741317  0.75627628  0.20142566     0.36000
C577        C  0.47103364  0.76568193  0.17694311    -0.06200
C578        C  0.50466263  0.80546130  0.17720811    -0.33100
C579        C  0.50611953  0.83494789  0.20363621     0.35900
H580        H  0.41229553  0.77751781  0.24616831     0.16300
O581        O  0.40354123  0.71800360  0.20065662    -0.60600
H582        H  0.53064140  0.81314732  0.15823128     0.16300
O583        O  0.53989036  0.87331845  0.20365195    -0.60700
H584        H  0.56066006  0.87079221  0.21943382     0.43300
H585        H  0.40661875  0.70335698  0.22380336     0.43200
C586        C  0.28463431  0.98415898  0.46508316    -0.05800
C587        C  0.29630847  0.95455678  0.46855900    -0.33200
C588        C  0.32474013  0.95423364  0.44198026     0.36000
C589        C  0.34240836  0.98412390  0.41159608    -0.06200
C590        C  0.33260093  0.01527827  0.40997606    -0.33100
C591        C  0.30354139  0.01506490  0.43594885     0.35900
H592        H  0.28202751  0.93055678  0.49079778     0.16300
O593        O  0.33456086  0.92420257  0.44566552    -0.60600
H594        H  0.34608634  0.03887694  0.38726161     0.16300
O595        O  0.29613689  0.04315889  0.93641502    -0.60700
H596        H  0.27601763  0.03690239  0.91475398     0.43300
H597        H  0.35856657  0.93574387  0.46372559     0.43200
C598        C  0.14836102  0.96812121  0.46691270    -0.05800
C599        C  0.12174608  0.97924359  0.48470848    -0.33200
C600        C  0.08952282  0.97793625  0.46274368     0.36000
C601        C  0.08405336  0.96588326  0.42235954    -0.06200
C602        C  0.10924803  0.95253184  0.40564952    -0.33100
C603        C  0.14069341  0.95316762  0.42749282     0.35900
H604        H  0.12463607  0.98690675  0.01529920     0.16300
O605        O  0.06537737  0.99084233  0.48023656    -0.60600
H606        H  0.09615319  0.43053965  0.37493317     0.16300
O607        O  0.15124063  0.42143386  0.41029917    -0.60700
H608        H  0.13555666  0.39206115  0.41765926     0.43300
H609        H  0.04293121  0.96611356  0.49304661     0.43200
C610        C  0.34445408  0.98544274  0.23083962    -0.05800
C611        C  0.32393985  0.95298374  0.20367680    -0.33200
C612        C  0.29615418  0.95295654  0.17583204     0.36000
C613        C  0.28736361  0.98489370  0.17582439    -0.06200
C614        C  0.30885982  0.01795904  0.20178725    -0.33100
C615        C  0.33781732  0.01891503  0.22844153     0.35900
H616        H  0.32889042  0.92720143  0.20451324     0.16300
O617        O  0.27558777  0.92017240  0.15081182    -0.60600
H618        H  0.30245245  0.04279297  0.20204028     0.16300
O619        O  0.35726882  0.05147305  0.25394369    -0.60700
H620        H  0.38181726  0.07188775  0.23916269     0.43300
H621        H  0.29187933  0.92792997  0.12584252     0.43200
C622        C  0.15376606  0.97528369  0.17627315    -0.05800
C623        C  0.15119541  0.96619636  0.21722172    -0.33200
C624        C  0.11942566  0.96298096  0.24063748     0.36000
C625        C  0.08891043  0.96937891  0.22363275    -0.06200
C626        C  0.09096714  0.97803729  0.18250371    -0.33100
C627        C  0.12293388  0.98087763  0.15881742     0.35900
H628        H  0.17393752  0.96122341  0.23154537     0.16300
O629        O  0.11920787  0.95428598  0.28055844    -0.60600
H630        H  0.06824409  0.98342742  0.16879010     0.16300
O631        O  0.12450411  0.99076168  0.11911091    -0.60700
H632        H  0.10689034  0.96447506  0.10533579     0.43300
H633        H  0.10361517  0.92403799  0.28240397     0.43200
C634        C  0.31587199  0.80683631  0.46865309    -0.05800
C635        C  0.30524247  0.81726822  0.43216201    -0.33200
C636        C  0.33428534  0.84925355  0.40886822     0.36000
C637        C  0.37507341  0.87222271  0.42203678    -0.06200
C638        C  0.38536662  0.86356226  0.45966666    -0.33100
C639        C  0.35615441  0.83105292  0.48293349     0.35900
H640        H  0.27429822  0.80002816  0.42106568     0.16300
O641        O  0.32226205  0.85812499  0.37332532    -0.60600
H642        H  0.41651066  0.88069819  0.47022018     0.16300
O643        O  0.36804394  0.82166344  0.51822430    -0.60700
H644        H  0.34625003  0.85150403  0.03616246     0.43300
H645        H  0.32010663  0.83711134  0.35427106     0.43200
C646        C  0.13186412  0.61549800  0.41262605    -0.05800
C647        C  0.13876047  0.65559275  0.41432418    -0.33200
C648        C  0.16817127  0.68454158  0.43980821     0.36000
C649        C  0.19063591  0.67355716  0.46515372    -0.06200
C650        C  0.18239008  0.63304837  0.46544708    -0.33100
C651        C  0.15364340  0.60415447  0.43896608     0.35900
H652        H  0.12244457  0.66521430  0.39465434     0.16300
O653        O  0.17457448  0.72358421  0.44001483    -0.60600
H654        H  0.19950659  0.62426037  0.48495515     0.16300
O655        O  0.14696971  0.56503927  0.43928006    -0.60700
H656        H  0.16932221  0.56609700  0.42309475     0.43300
H657        H  0.19200515  0.73722629  0.41641349     0.43200
C658        C  0.32020063  0.80322862  0.17651346    -0.05800
C659        C  0.30900027  0.81225541  0.21333395    -0.33200
C660        C  0.33659892  0.84564214  0.23589371     0.36000
C661        C  0.37681079  0.87105442  0.22211651    -0.06200
C662        C  0.38791857  0.86305259  0.18464634    -0.33100
C663        C  0.35997991  0.82926618  0.16191722     0.35900
H664        H  0.27853028  0.79319921  0.22505031     0.16300
O665        O  0.32410505  0.85244911  0.27208157    -0.60600
H666        H  0.41875817  0.88188278  0.17377408     0.16300
O667        O  0.37237334  0.82124611  0.12631368    -0.60700
H668        H  0.38302403  0.80286182  0.13326151     0.43300
H669        H  0.30858406  0.86636741  0.26559374     0.43200
C670        C  0.13498517  0.61724819  0.23494475    -0.05800
C671        C  0.15470869  0.60335597  0.20917386    -0.33200
C672        C  0.18435168  0.63017524  0.18198827     0.36000
C673        C  0.19482522  0.67144701  0.18070228    -0.06200
C674        C  0.17469239  0.68507910  0.20582492    -0.33100
C675        C  0.14476885  0.65841551  0.23242853     0.35900
H676        H  0.14760817  0.57185848  0.21052169     0.16300
O677        O  0.20404207  0.61623509  0.15808273    -0.60600
H678        H  0.18285005  0.71693534  0.20538791     0.16300
O679        O  0.12735573  0.67371360  0.25775684    -0.60700
H680        H  0.10510816  0.67358330  0.24204781     0.43300
H681        H  0.22675263  0.61844159  0.17462978     0.43200
C682        C  0.23041933  0.70111116  0.65506670     0.79900
N683        N  0.25987680  0.73484474  0.67376662    -0.78400
C684        C  0.28994575  0.76610167  0.65271339     0.82300
N685        N  0.28982201  0.76375655  0.61238585    -0.78400
C686        C  0.26031666  0.73044495  0.59311113     0.82400
N687        N  0.23040118  0.69897033  0.61446519    -0.80100
C688        C  0.22496186  0.70188384  0.99077164     0.79900
N689        N  0.25366121  0.73519433  0.97093666    -0.78400
C690        C  0.28562956  0.76612922  0.99042271     0.82300
N691        N  0.28727698  0.76565733  0.53000789    -0.78400
C692        C  0.25879282  0.73163518  0.54941274     0.82400
N693        N  0.22754681  0.70118435  0.52856281    -0.80100
C694        C  0.24670552  0.97523982  0.65512297     0.79900
N695        N  0.24654101  0.97375768  0.61458477    -0.78400
C696        C  0.21552428  0.97310775  0.59364304     0.82300
N697        N  0.18436949  0.97342191  0.61347275    -0.78400
C698        C  0.18421754  0.97472089  0.65408294     0.82400
N699        N  0.21579009  0.97598592  0.67454016    -0.80100
C700        C  0.24696455  0.97460020  0.98627324     0.79900
N701        N  0.21434417  0.97216369  0.96705241    -0.78400
C702        C  0.18244634  0.96975291  0.98774165     0.82300
N703        N  0.18393201  0.97097446  0.52950512    -0.78400
C704        C  0.21612865  0.97349871  0.54972285     0.82400
N705        N  0.24894129  0.97755011  0.52915940    -0.80100
C706        C  0.47484181  0.73472106  0.65178543     0.79900
N707        N  0.47099056  0.73232421  0.61129574    -0.78400
C708        C  0.47119605  0.70102966  0.59150656     0.82300
N709        N  0.47509955  0.67230464  0.61238828    -0.78400
C710        C  0.47917558  0.67469680  0.65275779     0.82400
N711        N  0.47926790  0.70614934  0.67212115    -0.80100
C712        C  0.48109966  0.73667266  0.98757961     0.79900
N713        N  0.46957668  0.72950105  0.52568000    -0.78400
C714        C  0.47047651  0.69954418  0.54758557     0.82300
N715        N  0.47394313  0.66958490  0.52876384    -0.78400
C716        C  0.48488334  0.67644269  0.98922325     0.82400
N717        N  0.48459998  0.70709057  0.96860266    -0.80100
O718        O  0.39736407  0.51477290  0.77598561    -0.88500
C719        C  0.10626798  0.58708807  0.88002985     1.11500
O720        O  0.44167390  0.97550802  0.82033707    -1.36300
O721        O  0.08035064  0.59508244  0.77619005    -0.90000
O722        O  0.35961961  0.94528544  0.77643517    -0.93400
O723        O  0.44104582  0.93295002  0.73463472    -0.79500
O724        O  0.48733399  0.55673058  0.78413357    -1.01600
C725        C  0.05415183  0.96986724  0.74984656     1.21600
O726        O  0.48152278  0.93048840  0.82045074    -1.36500
Mn727      Mn  0.48227967  0.97310924  0.86497066     1.82100
O728        O  0.02443485  0.97248017  0.73710701    -0.78600
O729        O  0.11166971  0.55853762  0.77722729    -0.88000
C730        C  0.05178788  0.96851830  0.89587423     1.12600
C731        C  0.10736125  0.58751874  0.76354421     1.07400
O732        O  0.43813618  0.92994891  0.90534936    -0.79500
O733        O  0.02807515  0.51456373  0.82111312    -1.33200
O734        O  0.40293543  0.89569826  0.85641395    -0.98700
C735        C  0.47972864  0.85474186  0.76045812     1.06100
Mn736      Mn  0.08335484  0.51361368  0.82176025     1.48600
O737        O  0.44574511  0.84770920  0.77465730    -0.87900
Mn738      Mn  0.38302807  0.92315448  0.82056738     1.49600
O739        O  0.39595150  0.51344886  0.86526810    -0.91800
C740        C  0.48718821  0.55148094  0.74824545     1.19300
C741        C  0.36725616  0.97815670  0.87871630     1.11300
Mn742      Mn  0.48389917  0.97441617  0.77687643     1.81000
O743        O  0.05637794  0.96889814  0.85996978    -0.97000
Mn744      Mn  0.44106846  0.53253893  0.82101386     1.49300
C745        C  0.36796517  0.97982413  0.76215529     1.07800
Mn746      Mn  0.03070410  0.92309954  0.82321677     1.49900
C747        C  0.47889472  0.85187738  0.87648852     1.10800
O748        O  0.40174100  0.89552041  0.78160096    -1.02800
O749        O  0.11003576  0.55750709  0.86731667    -0.92400
C750        C  0.40824721  0.90214179  0.74536802     1.22000
O751        O  0.05768659  0.96908684  0.78589839    -1.03100
O752        O  0.08066810  0.59581200  0.86531760    -0.90500
O753        O  0.00777082  0.87822260  0.86859992    -0.90200
O754        O  0.36062639  0.94369058  0.86631349    -0.90200
Mn755      Mn  0.03606542  0.57388053  0.82072207     1.47900
O756        O  0.02116913  0.96987122  0.90778228    -0.78700
C757        C  0.40687232  0.89891388  0.89245906     1.15100
O758        O  0.48544641  0.51920498  0.73648448    -0.77400
O759        O  0.48278433  0.51706781  0.90622222    -0.77000
Mn760      Mn  0.42691780  0.87313558  0.81981934     1.51100
O761        O  0.01023472  0.87822382  0.77901348    -0.89300
O762        O  0.48644320  0.55569496  0.85868850    -0.96900
O763        O  0.44481162  0.84682278  0.86489941    -0.91900
C764        C  0.48566575  0.54992469  0.89453776     1.12900
C765        C  0.48815300  0.64438104  0.96726215    -0.05800
C766        C  0.46856794  0.60392851  0.98162589    -0.33200
C767        C  0.46852499  0.57264752  0.95911496     0.36000
C768        C  0.48839486  0.58177509  0.92184322    -0.06200
C769        C  0.50912585  0.62243746  0.90835304    -0.33100
C770        C  0.50906870  0.65348869  0.93050538     0.35900
H771        H  0.44984233  0.59056071  0.51146181     0.16300
O772        O  0.44668403  0.53307926  0.97247302    -0.60600
H773        H  0.02089999  0.63065982  0.87701402     0.16300
O774        O  0.02030048  0.69083048  0.91260632    -0.60700
H775        H  0.99985509  0.68881681  0.89288923     0.43300
H776        H  0.46622455  0.52879912  0.98845383     0.43200
C777        C  0.48207577  0.76958271  0.96323507    -0.05800
C778        C  0.51223268  0.78762943  0.93383246    -0.33200
C779        C  0.51163977  0.81477189  0.90602477     0.36000
C780        C  0.48009333  0.82411673  0.90689044    -0.06200
C781        C  0.44988253  0.80629346  0.93657256    -0.33100
C782        C  0.45090974  0.77930916  0.96488422     0.35900
H783        H  0.52133805  0.76462427  0.42255944     0.16300
O784        O  0.54062534  0.82987593  0.87645858    -0.60600
H785        H  0.42541134  0.81309878  0.93768877     0.16300
O786        O  0.42062600  0.76148740  0.99296717    -0.60700
H787        H  0.39811144  0.73738251  0.97948990     0.43300
H788        H  0.56496881  0.85308634  0.88883997     0.43200
C789        C  0.48386087  0.64363177  0.67553496    -0.05800
C790        C  0.46632533  0.60333071  0.66118588    -0.33200
C791        C  0.46813811  0.57291985  0.68374459     0.36000
C792        C  0.48830015  0.58279996  0.72090682    -0.06200
C793        C  0.00900234  0.62157827  0.73358150    -0.33100
C794        C  0.00609237  0.65139904  0.71180962     0.35900
H795        H  0.44989589  0.59500565  0.63308081     0.16300
O796        O  0.44869861  0.53348648  0.66998778    -0.60600
H797        H  0.02497982  0.63005580  0.76195936     0.16300
O798        O  0.02495474  0.69055802  0.72636780    -0.60700
H799        H  0.00692692  0.69025865  0.74792283     0.43300
H800        H  0.42059964  0.52087304  0.68065759     0.43200
C801        C  0.48013374  0.82781296  0.72839384    -0.05800
C802        C  0.44561937  0.80489212  0.70412081    -0.33200
C803        C  0.44419175  0.77586733  0.67703124     0.36000
C804        C  0.47743907  0.76940504  0.67411013    -0.06200
C805        C  0.51233010  0.79327472  0.69700882    -0.33100
C806        C  0.51404995  0.82233725  0.72373398     0.35900
H807        H  0.41927386  0.80859969  0.70695776     0.16300
O808        O  0.40954257  0.75262404  0.65508860    -0.60600
H809        H  0.53800819  0.78834399  0.69515065     0.16300
O810        O  0.54844682  0.84371469  0.74654978    -0.60700
H811        H  0.54350979  0.82696304  0.77105453     0.43300
H812        H  0.39175393  0.72910632  0.67254955     0.43200
C813        C  0.28112257  0.97766171  0.96262794    -0.05800
C814        C  0.28978946  0.94580529  0.96331518    -0.33200
C815        C  0.31882054  0.94613135  0.93718196     0.36000
C816        C  0.33998402  0.97893622  0.91006984    -0.06200
C817        C  0.33264084  0.01176428  0.91114710    -0.33100
C818        C  0.30316561  0.01101352  0.93675554     0.35900
H819        H  0.27300084  0.91994130  0.98314269     0.16300
O820        O  0.32571976  0.91392453  0.93798686    -0.60600
H821        H  0.34855199  0.03739352  0.89087194     0.16300
O822        O  0.29378280  0.04525538  0.43269434    -0.60700
H823        H  0.27440944  0.03698860  0.41001540     0.43300
H824        H  0.34773063  0.92166083  0.95799885     0.43200
C825        C  0.14654574  0.96631609  0.96588410    -0.05800
C826        C  0.11981118  0.97693675  0.98443324    -0.33200
C827        C  0.08752267  0.97637339  0.96296911     0.36000
C828        C  0.08180490  0.96544967  0.92222977    -0.06200
C829        C  0.10733355  0.95296466  0.90457126    -0.33100
C830        C  0.13898928  0.95308402  0.92577193     0.35900
H831        H  0.12668730  0.99023207  0.51523867     0.16300
O832        O  0.06359746  0.98901500  0.98139130    -0.60600
H833        H  0.10693798  0.44366901  0.87205291     0.16300
O834        O  0.16520455  0.43978878  0.90637847    -0.60700
H835        H  0.15157487  0.40984088  0.91082280     0.43300
H836        H  0.04039964  0.96382313  0.99268366     0.43200
C837        C  0.34083119  0.98093155  0.73070962    -0.05800
C838        C  0.31852271  0.94696575  0.70559074    -0.33200
C839        C  0.28920719  0.94562526  0.67901766     0.36000
C840        C  0.28088552  0.97784565  0.67834605    -0.06200
C841        C  0.30389222  0.01219287  0.70231753    -0.33100
C842        C  0.33429136  0.01439510  0.72760218     0.35900
H843        H  0.32331103  0.92110034  0.70704480     0.16300
O844        O  0.26707090  0.91164655  0.65579248    -0.60600
H845        H  0.29788213  0.03729444  0.70178674     0.16300
O846        O  0.35554248  0.04838829  0.75101528    -0.60700
H847        H  0.37887127  0.06788706  0.73430378     0.43300
H848        H  0.28367085  0.91653121  0.63134648     0.43200
C849        C  0.14955901  0.97298693  0.67666923    -0.05800
C850        C  0.14455239  0.96062412  0.71682588    -0.33200
C851        C  0.11308368  0.95834493  0.73999753     0.36000
C852        C  0.08542134  0.96913401  0.72365023    -0.06200
C853        C  0.08977847  0.98107389  0.68323295    -0.33100
C854        C  0.12149146  0.98298927  0.65971311     0.35900
H855        H  0.16508731  0.95221656  0.73069951     0.16300
O856        O  0.11018891  0.94595161  0.77907653    -0.60600
H857        H  0.06924327  0.98988814  0.67009710     0.16300
O858        O  0.12576112  0.99642910  0.62091916    -0.60700
H859        H  0.10626616  0.97220139  0.60526492     0.43300
H860        H  0.09467999  0.91564340  0.77818629     0.43200
C861        C  0.31681194  0.80188513  0.96710398    -0.05800
C862        C  0.31131910  0.80243013  0.92563335    -0.33200
C863        C  0.34005527  0.83367233  0.90158469     0.36000
C864        C  0.37565129  0.86633674  0.91858506    -0.06200
C865        C  0.38108150  0.86658928  0.96021700    -0.33100
C866        C  0.35197557  0.83487747  0.98448798     0.35900
H867        H  0.28463551  0.77809260  0.91114071     0.16300
O868        O  0.33259082  0.83178348  0.86123625    -0.60600
H869        H  0.40806472  0.89124591  0.97399643     0.16300
O870        O  0.35879453  0.83622677  0.02488695    -0.60700
H871        H  0.36655119  0.84004012  0.53836297     0.43300
H872        H  0.34267625  0.81423340  0.85021717     0.43200
C873        C  0.13366229  0.61384600  0.91242360    -0.05800
C874        C  0.13676726  0.65201678  0.91903785    -0.33200
C875        C  0.16512502  0.68000556  0.94605871     0.36000
C876        C  0.19045850  0.66995212  0.96795625    -0.06200
C877        C  0.18599365  0.63111926  0.96348734    -0.33100
C878        C  0.15813814  0.60321873  0.93569684     0.35900
H879        H  0.11822181  0.66105199  0.90212126     0.16300
O880        O  0.16805385  0.71737323  0.95079880    -0.60600
H881        H  0.20549824  0.62313245  0.98014404     0.16300
O882        O  0.15523937  0.56582970  0.93156506    -0.60700
H883        H  0.17851234  0.57076697  0.91435327     0.43300
H884        H  0.18582988  0.73458053  0.92868599     0.43200
C885        C  0.32022897  0.80355123  0.67366728    -0.05800
C886        C  0.30978828  0.81191212  0.71107718    -0.33200
C887        C  0.33737468  0.84566565  0.73299488     0.36000
C888        C  0.37710695  0.87197417  0.71808265    -0.06200
C889        C  0.38722375  0.86496354  0.67979749    -0.33100
C890        C  0.35904549  0.83091140  0.65754789     0.35900
H891        H  0.27997023  0.79199198  0.72382684     0.16300
O892        O  0.32556171  0.85151683  0.77001389    -0.60600
H893        H  0.41754377  0.88454089  0.66800304     0.16300
O894        O  0.37036227  0.82390501  0.62087065    -0.60700
H895        H  0.38306507  0.80707576  0.62639678     0.43300
H896        H  0.30854229  0.86406361  0.76476449     0.43200
C897        C  0.13625593  0.61525314  0.73288724    -0.05800
C898        C  0.15424472  0.60119661  0.70512609    -0.33200
C899        C  0.18380162  0.62838659  0.67798018     0.36000
C900        C  0.19624578  0.67022483  0.67913057    -0.06200
C901        C  0.17782615  0.68395409  0.70632731    -0.33100
C902        C  0.14780986  0.65696507  0.73259143     0.35900
H903        H  0.14576453  0.56928567  0.70480995     0.16300
O904        O  0.20128700  0.61410978  0.65157083    -0.60600
H905        H  0.18722424  0.71611430  0.70762067     0.16300
O906        O  0.13197479  0.67233436  0.75972324    -0.60700
H907        H  0.10994034  0.67377574  0.74517264     0.43300
H908        H  0.22430399  0.61487111  0.66636724     0.43200
C909        C  0.72598325  0.20577107  0.15520949     0.79900
N910        N  0.75560750  0.23937228  0.17382294    -0.78400
C911        C  0.78682585  0.26967175  0.15305997     0.82300
N912        N  0.78789479  0.26643234  0.11282919    -0.78400
C913        C  0.75823855  0.23309058  0.09354154     0.82400
N914        N  0.72714832  0.20258737  0.11477177    -0.80100
C915        C  0.72958058  0.20056584  0.48986394     0.79900
N916        N  0.75920938  0.23334106  0.47006143    -0.78400
C917        C  0.79084554  0.26413809  0.49012682     0.82300
N918        N  0.78759519  0.26615562  0.03012636    -0.78400
C919        C  0.75833072  0.23281639  0.04971501     0.82400
N920        N  0.72771732  0.20179823  0.02870550    -0.80100
C921        C  0.75141310  0.48280550  0.15356827     0.79900
N922        N  0.75093664  0.48083490  0.11299079    -0.78400
C923        C  0.71974928  0.47996883  0.09209961     0.82300
N924        N  0.68884858  0.48058383  0.11200532    -0.78400
C925        C  0.68904849  0.48248559  0.15256180     0.82400
N926        N  0.72070716  0.48394195  0.17305001    -0.80100
C927        C  0.75200400  0.48120125  0.48901002     0.79900
N928        N  0.71996618  0.47913316  0.46911537    -0.78400
C929        C  0.68665979  0.47448799  0.48871410     0.82300
N930        N  0.68774312  0.47807773  0.02817425    -0.78400
C931        C  0.71976019  0.47979801  0.04814328     0.82400
N932        N  0.75187373  0.48255964  0.02730743    -0.80100
C933        C  0.97807336  0.23620374  0.15455866     0.79900
N934        N  0.97825407  0.23646476  0.11394698    -0.78400
C935        C  0.98171458  0.20725149  0.09362092     0.82300
N936        N  0.98578573  0.17840887  0.11404471    -0.78400
C937        C  0.98633543  0.17841848  0.15461336     0.82400
N938        N  0.98198346  0.20717938  0.17447257    -0.80100
C939        C  0.97488981  0.23182377  0.48573444     0.79900
N940        N  0.97522190  0.23419360  0.02896274    -0.78400
C941        C  0.97910393  0.20543376  0.04983929     0.82300
N942        N  0.97979992  0.17440237  0.03007658    -0.78400
C943        C  0.98183059  0.17331874  0.48857175     0.82400
N944        N  0.98046131  0.20312935  0.46741849    -0.80100
O945        O  0.89995709  0.01663104  0.27664152    -0.88500
C946        C  0.60530407  0.08849427  0.38201634     1.11500
O947        O  0.94226249  0.47694284  0.32144609    -1.36300
O948        O  0.57918904  0.09900202  0.27965104    -0.90000
O949        O  0.86077551  0.44774468  0.27686055    -0.93400
O950        O  0.93951914  0.43264530  0.23673484    -0.79500
O951        O  0.99117311  0.05723625  0.28380099    -1.01600
C952        C  0.55910535  0.47658740  0.24853715     1.21600
O953        O  0.98015560  0.43033534  0.32123709    -1.36500
Mn954      Mn  0.98298040  0.47382768  0.36535372     1.82100
O955        O  0.52691192  0.47441501  0.23605487    -0.78600
O956        O  0.61055994  0.06260194  0.27820807    -0.88000
C957        C  0.55591359  0.47133171  0.39581458     1.12600
C958        C  0.60599957  0.09181117  0.26577913     1.07400
O959        O  0.93936071  0.43201658  0.40661759    -0.79500
O960        O  0.52721337  0.01612646  0.32214051    -1.33200
O961        O  0.90158156  0.39760470  0.35889350    -0.98700
C962        C  0.97421659  0.35293708  0.26142895     1.06100
Mn963      Mn  0.58326710  0.01706976  0.32231807     1.48600
O964        O  0.94125336  0.34681882  0.27751145    -0.87900
Mn965      Mn  0.88322494  0.42511597  0.32184060     1.49600
O966        O  0.89943761  0.01577710  0.36573536    -0.91800
C967        C  0.99130511  0.05181873  0.24732341     1.19300
C968        C  0.86985224  0.48273945  0.37989719     1.11300
Mn969      Mn  0.98320422  0.47426922  0.27761713     1.81000
O970        O  0.56194172  0.47286937  0.35938083    -0.97000
Mn971      Mn  0.94371032  0.03312811  0.32163664     1.49300
C972        C  0.86935151  0.48248706  0.26277283     1.07800
Mn973      Mn  0.53714517  0.42719676  0.31984075     1.49900
C974        C  0.97569235  0.35095321  0.37695356     1.10800
O975        O  0.90135753  0.39766657  0.28449545    -1.02800
O976        O  0.60893821  0.05959406  0.36767933    -0.92400
C977        C  0.90681357  0.40254372  0.24858741     1.22000
O978        O  0.56274883  0.47531106  0.28449910    -1.03100
O979        O  0.57891209  0.09716722  0.36916447    -0.90500
O980        O  0.51750240  0.38145980  0.36302461    -0.90200
O981        O  0.86170931  0.44769400  0.36738609    -0.90200
Mn982      Mn  0.53433023  0.07522550  0.32357589     1.47900
O983        O  0.52418936  0.47073800  0.40729708    -0.78700
C984        C  0.90690826  0.40172469  0.39479733     1.15100
O985        O  0.98908387  0.01924620  0.23575751    -0.77400
O986        O  0.98584127  0.01677864  0.40633752    -0.77000
Mn987      Mn  0.92402302  0.37432571  0.32190612     1.51100
O988        O  0.51837328  0.38479916  0.27438982    -0.89300
O989        O  0.99009110  0.05572212  0.35898409    -0.96900
O990        O  0.94188546  0.34785594  0.36715582    -0.91900
C991        C  0.98910069  0.04980665  0.39483513     1.12900
C992        C  0.98785560  0.14245287  0.46741448    -0.05800
C993        C  0.96956611  0.10207237  0.48181355    -0.33200
C994        C  0.97118051  0.07152411  0.45953304     0.36000
C995        C  0.99145763  0.08131506  0.42244599    -0.06200
C996        C  0.01170843  0.12211025  0.40936141    -0.33100
C997        C  0.00995252  0.15244538  0.43129268     0.35900
H998        H  0.95165798  0.09349515  0.01293280     0.16300
O999        O  0.95026440  0.03185544  0.47276098    -0.60600
H1000       H  0.52529568  0.13035262  0.38113134     0.16300
O1001       O  0.52945817  0.19248117  0.41716768    -0.60700
H1002       H  0.51124838  0.19330124  0.39636846     0.43300
H1003       H  0.96945502  0.02896149  0.49071072     0.43200
C1004       C  0.97615468  0.26484206  0.46099628    -0.05800
C1005       C  0.00380757  0.27991307  0.42908732    -0.33200
C1006       C  0.00442628  0.30857285  0.40245473     0.36000
C1007       C  0.97638988  0.32232658  0.40673804    -0.06200
C1008       C  0.94884466  0.30766541  0.43892873    -0.33100
C1009       C  0.94888018  0.27937982  0.46630217     0.35900
H1010       H  0.02286170  0.31297236  0.99018334     0.16300
O1011       O  0.03104159  0.32105374  0.37084327    -0.60600
H1012       H  0.92717295  0.31793279  0.44271724     0.16300
O1013       O  0.92150199  0.26531472  0.49726868    -0.60700
H1014       H  0.89525043  0.24472732  0.48521048     0.43300
H1015       H  0.05724682  0.34312087  0.38165301     0.43200
C1016       C  0.99047444  0.14685016  0.17718763    -0.05800
C1017       C  0.98586176  0.11167339  0.15777410    -0.33200
C1018       C  0.98698968  0.08035581  0.17948634     0.36000
C1019       C  0.99348002  0.08435168  0.22101867    -0.06200
C1020       C  0.51027868  0.12391682  0.23691442    -0.33100
C1021       C  0.51156823  0.15534457  0.21412296     0.35900
H1022       H  0.98025393  0.10783961  0.12587597     0.16300
O1023       O  0.98119438  0.04606267  0.15995282    -0.60600
H1024       H  0.52253329  0.13082749  0.26701389     0.16300
O1025       O  0.52913859  0.19369781  0.23053376    -0.60700
H1026       H  0.50847782  0.19293766  0.24913585     0.43300
H1027       H  0.95144598  0.02669281  0.16112399     0.43200
C1028       C  0.97196959  0.32436925  0.22994158    -0.05800
C1029       C  0.94215196  0.28282883  0.23271253    -0.33200
C1030       C  0.94314858  0.25401788  0.20730289     0.36000
C1031       C  0.97332894  0.26666435  0.17759218    -0.06200
C1032       C  0.00141842  0.30837420  0.17288449    -0.33100
C1033       C  0.00129011  0.33708704  0.19919391     0.35900
H1034       H  0.91925160  0.27230159  0.25599720     0.16300
O1035       O  0.91449262  0.21345873  0.21168869    -0.60600
H1036       H  0.02479113  0.31850475  0.15010231     0.16300
O1037       O  0.02997584  0.37750147  0.19463992    -0.60700
H1038       H  0.05501965  0.38063644  0.20736340     0.43300
H1039       H  0.92440054  0.20353969  0.23409306     0.43200
C1040       C  0.78712490  0.48574056  0.46575153    -0.05800
C1041       C  0.80047569  0.45751999  0.47051245    -0.33200
C1042       C  0.82855980  0.45697818  0.44361237     0.36000
C1043       C  0.84406311  0.48527429  0.41171624    -0.06200
C1044       C  0.83298282  0.51541437  0.40897197    -0.33100
C1045       C  0.80433200  0.51540737  0.43525324     0.35900
H1046       H  0.78760171  0.43458288  0.49388563     0.16300
O1047       O  0.83997807  0.42816819  0.44830987    -0.60600
H1048       H  0.84502173  0.53787907  0.38511466     0.16300
O1049       O  0.79224976  0.54540954  0.92614488    -0.60700
H1050       H  0.77208273  0.53453852  0.90410796     0.43300
H1051       H  0.86632928  0.44232662  0.46284453     0.43200
C1052       C  0.65184442  0.47207375  0.46580026    -0.05800
C1053       C  0.61777059  0.46954744  0.48557851    -0.33200
C1054       C  0.58539478  0.46846309  0.46385634     0.36000
C1055       C  0.58709640  0.47043456  0.42185536    -0.06200
C1056       C  0.62072126  0.47201506  0.40251102    -0.33100
C1057       C  0.65236178  0.47258949  0.42362854     0.35900
H1058       H  0.62636516  0.49073834  0.01638701     0.16300
O1059       O  0.55300183  0.46637387  0.48394268    -0.60600
H1060       H  0.60357133  0.93976771  0.37461390     0.16300
O1061       O  0.66431143  0.93971685  0.40884163    -0.60700
H1062       H  0.65063242  0.91043490  0.41654366     0.43300
H1063       H  0.53255722  0.43682374  0.48549611     0.43200
C1064       C  0.84275961  0.48422965  0.23075464    -0.05800
C1065       C  0.81588995  0.44861628  0.20943666    -0.33200
C1066       C  0.78742010  0.44840652  0.18244974     0.36000
C1067       C  0.78491596  0.48386251  0.17685696    -0.06200
C1068       C  0.81251832  0.51979421  0.19670919    -0.33100
C1069       C  0.84172483  0.52046637  0.22287072     0.35900
H1070       H  0.81628786  0.42053694  0.21427952     0.16300
O1071       O  0.76043032  0.41273342  0.16364839    -0.60600
H1072       H  0.81086127  0.54731225  0.19253515     0.16300
O1073       O  0.86741862  0.55622441  0.24226878    -0.60700
H1074       H  0.89109117  0.57105012  0.22412562     0.43300
H1075       H  0.77498752  0.41151763  0.13957393     0.43200
C1076       C  0.65554142  0.48327739  0.17480144    -0.05800
C1077       C  0.66338951  0.49944195  0.21357582    -0.33200
C1078       C  0.63249141  0.49800448  0.23719053     0.36000
C1079       C  0.59245102  0.48100316  0.22204888    -0.06200
C1080       C  0.58467906  0.46634663  0.18260846    -0.33100
C1081       C  0.61570602  0.46691535  0.15916079     0.35900
H1082       H  0.69370607  0.51281946  0.22617890     0.16300
O1083       O  0.64206854  0.51377501  0.27514652    -0.60600
H1084       H  0.55416143  0.45288310  0.17050020     0.16300
O1085       O  0.60629205  0.45007636  0.12166191    -0.60700
H1086       H  0.59735366  0.42079980  0.12566559     0.43300
H1087       H  0.64236543  0.49215303  0.29167760     0.43200
C1088       C  0.82101425  0.30125654  0.46797933    -0.05800
C1089       C  0.80938550  0.31005181  0.43113861    -0.33200
C1090       C  0.83650418  0.34370466  0.40832788     0.36000
C1091       C  0.87661368  0.36984468  0.42192762    -0.06200
C1092       C  0.88802904  0.36232878  0.45960395    -0.33100
C1093       C  0.86059559  0.32828336  0.48260903     0.35900
H1094       H  0.77889106  0.29066684  0.41964295     0.16300
O1095       O  0.82315980  0.35104913  0.37278567    -0.60600
H1096       H  0.91877218  0.38177053  0.47046863     0.16300
O1097       O  0.87358608  0.32055831  0.51813361    -0.60700
H1098       H  0.86601665  0.34291935  0.03928924     0.43300
H1099       H  0.82399420  0.33170382  0.35341199     0.43200
C1100       C  0.63446050  0.11403506  0.41387511    -0.05800
C1101       C  0.63213531  0.14697809  0.43025324    -0.33200
C1102       C  0.66221300  0.17444063  0.45648593     0.36000
C1103       C  0.69489245  0.16895199  0.46727983    -0.06200
C1104       C  0.69648981  0.13526241  0.45275462    -0.33100
C1105       C  0.66677859  0.10790219  0.42624161     0.35900
H1106       H  0.60771107  0.15236340  0.42174134     0.16300
O1107       O  0.65984764  0.20704708  0.47088491    -0.60600
H1108       H  0.72171214  0.13095974  0.46085083     0.16300
O1109       O  0.67035621  0.07588778  0.41205666    -0.60700
H1110       H  0.68981719  0.08731532  0.38943588     0.43300
H1111       H  0.67507937  0.22942467  0.45136937     0.43200
C1112       C  0.81770467  0.30647851  0.17456551    -0.05800
C1113       C  0.80692950  0.31549029  0.21159980    -0.33200
C1114       C  0.83519467  0.34790018  0.23471571     0.36000
C1115       C  0.87564858  0.37230852  0.22125293    -0.06200
C1116       C  0.88629129  0.36473074  0.18333442    -0.33100
C1117       C  0.85765583  0.33192896  0.16001931     0.35900
H1118       H  0.77632396  0.29699822  0.22319837     0.16300
O1119       O  0.82317928  0.35452976  0.27126330    -0.60600
H1120       H  0.91724398  0.38303064  0.17255688     0.16300
O1121       O  0.86952186  0.32425333  0.12392379    -0.60700
H1122       H  0.87842866  0.30429146  0.12987110     0.43300
H1123       H  0.80603590  0.36681541  0.26531762     0.43200
C1124       C  0.63405928  0.11993740  0.23488736    -0.05800
C1125       C  0.64949174  0.10567855  0.20465651    -0.33200
C1126       C  0.67799713  0.13293555  0.17681157     0.36000
C1127       C  0.69185001  0.17502529  0.17952604    -0.06200
C1128       C  0.67580663  0.18896418  0.20920918    -0.33100
C1129       C  0.64696032  0.16192644  0.23639777     0.35900
H1130       H  0.63982602  0.07349551  0.20293240     0.16300
O1131       O  0.69333239  0.11842097  0.14827269    -0.60600
H1132       H  0.68637467  0.22130855  0.21189503     0.16300
O1133       O  0.63377085  0.17737174  0.26613297    -0.60700
H1134       H  0.61158999  0.18032518  0.25385401     0.43300
H1135       H  0.71700547  0.11865902  0.16109817     0.43200
C1136       C  0.72826554  0.20307120  0.65592412     0.79900
N1137       N  0.75689398  0.23724765  0.67469166    -0.78400
C1138       C  0.78854170  0.26748094  0.65415935     0.82300
N1139       N  0.79081330  0.26368269  0.61409055    -0.78400
C1140       C  0.76202878  0.22991263  0.59469630     0.82400
N1141       N  0.73069124  0.19942626  0.61570827    -0.80100
C1142       C  0.72660048  0.20446457  0.98820378     0.79900
N1143       N  0.75586260  0.23811988  0.96912242    -0.78400
C1144       C  0.78671260  0.26895097  0.98982834     0.82300
N1145       N  0.79223223  0.26188227  0.53058399    -0.78400
C1146       C  0.76252050  0.22920848  0.55079403     0.82400
N1147       N  0.73104515  0.19859623  0.53032566    -0.80100
C1148       C  0.75072231  0.48204716  0.65533824     0.79900
N1149       N  0.74968828  0.47827962  0.61490397    -0.78400
C1150       C  0.71792290  0.47587181  0.59375664     0.82300
N1151       N  0.68689104  0.47660330  0.61329540    -0.78400
C1152       C  0.68756622  0.48016725  0.65374361     0.82400
N1153       N  0.71988710  0.48329584  0.67436446    -0.80100
C1154       C  0.75218763  0.48448929  0.98665436     0.79900
N1155       N  0.72006024  0.48290845  0.96729345    -0.78400
C1156       C  0.68748320  0.47920330  0.98765344     0.82300
N1157       N  0.68607211  0.47274051  0.52926713    -0.78400
C1158       C  0.71805882  0.47494463  0.54982757     0.82400
N1159       N  0.75094390  0.47878578  0.52960254    -0.80100
C1160       C  0.96930836  0.23077307  0.65313710     0.79900
N1161       N  0.96904979  0.23095090  0.61241587    -0.78400
C1162       C  0.97157047  0.20123131  0.59192046     0.82300
N1163       N  0.97534784  0.17214777  0.61228947    -0.78400
C1164       C  0.97658413  0.17237587  0.65282776     0.82400
N1165       N  0.97314235  0.20155572  0.67296437    -0.80100
C1166       C  0.97110014  0.23138799  0.98857509     0.79900
N1167       N  0.97105953  0.23099491  0.52624814    -0.78400
C1168       C  0.97261748  0.20124443  0.54793056     0.82300
N1169       N  0.97772783  0.17239666  0.52890372    -0.78400
C1170       C  0.97654769  0.17197792  0.98960352     0.82400
N1171       N  0.97179295  0.20035737  0.96924076    -0.80100
O1172       O  0.89513306  0.01298413  0.77589793    -0.88500
C1173       C  0.60308975  0.08825611  0.88206890     1.11500
O1174       O  0.94356363  0.47747787  0.82103567    -1.36300
O1175       O  0.57812444  0.09806755  0.77888446    -0.90000
O1176       O  0.86256826  0.44970580  0.77568024    -0.93400
O1177       O  0.94026349  0.43232471  0.73629553    -0.79500
O1178       O  0.98485358  0.05490860  0.78460511    -1.01600
C1179       C  0.55663434  0.47320652  0.74936688     1.21600
O1180       O  0.98060774  0.42956312  0.82118406    -1.36500
Mn1181     Mn  0.98406327  0.47381732  0.86498970     1.82100
O1182       O  0.52581622  0.47379268  0.73662685    -0.78600
O1183       O  0.61000241  0.06213992  0.77904382    -0.88000
C1184       C  0.55440955  0.47193982  0.89653959     1.12600
C1185       C  0.60532675  0.09099500  0.76569072     1.07400
O1186       O  0.94019864  0.43268109  0.90644787    -0.79500
O1187       O  0.52640385  0.01536647  0.82190062    -1.33200
O1188       O  0.90040370  0.39664416  0.85919452    -0.98700
C1189       C  0.97396840  0.35096159  0.76178024     1.06100
Mn1190     Mn  0.58270742  0.01655876  0.82293369     1.48600
O1191       O  0.94107962  0.34718993  0.77536962    -0.87900
Mn1192     Mn  0.88376273  0.42680793  0.82079449     1.49600
O1193       O  0.89251484  0.01046752  0.86584953    -0.91800
C1194       C  0.98530389  0.04978344  0.74868404     1.19300
C1195       C  0.87124605  0.48471848  0.87931822     1.11300
Mn1196     Mn  0.98427640  0.47370190  0.77722683     1.81000
O1197       O  0.55978367  0.47171903  0.86015092    -0.97000
Mn1198     Mn  0.93829570  0.03017910  0.82147671     1.49300
C1199       C  0.87095132  0.48468291  0.76287243     1.07800
Mn1200     Mn  0.53212961  0.42470111  0.82213384     1.49900
C1201       C  0.97392002  0.35000497  0.87873039     1.10800
O1202       O  0.90188858  0.39849486  0.78417036    -1.02800
O1203       O  0.60794162  0.05961648  0.86875890    -0.92400
C1204       C  0.90716224  0.40287969  0.74826453     1.22000
O1205       O  0.55991038  0.47178576  0.78538364    -1.03100
O1206       O  0.57636621  0.09592839  0.86825924    -0.90500
O1207       O  0.50939054  0.38014696  0.86750204    -0.90200
O1208       O  0.86217912  0.44972912  0.86589728    -0.90200
Mn1209     Mn  0.53252948  0.07382678  0.82256524     1.47900
O1210       O  0.52335132  0.47272844  0.90780419    -0.78700
C1211       C  0.90711490  0.40253424  0.89548666     1.15100
O1212       O  0.98401322  0.01767413  0.73707975    -0.77400
O1213       O  0.98027940  0.01460493  0.90690967    -0.77000
Mn1214     Mn  0.92433472  0.37375372  0.82041692     1.51100
O1215       O  0.51139108  0.38063881  0.77777603    -0.89300
O1216       O  0.98338215  0.05283326  0.85935888    -0.96900
O1217       O  0.94099297  0.34572567  0.86447379    -0.91900
C1218       C  0.98238738  0.04715632  0.89525673     1.12900
C1219       C  0.98012340  0.14014133  0.96729570    -0.05800
C1220       C  0.96548292  0.10080521  0.98351824    -0.33200
C1221       C  0.96716468  0.07011539  0.96132368     0.36000
C1222       C  0.98367737  0.07870468  0.92241256    -0.06200
C1223       C  0.99973563  0.11851392  0.90719962    -0.33100
C1224       C  0.99795871  0.14885359  0.92900153     0.35900
H1225       H  0.95238247  0.09375565  0.50945979     0.16300
O1226       O  0.95051687  0.03147072  0.97695748    -0.60600
H1227       H  0.49555244  0.12069450  0.86970054     0.16300
O1228       O  0.49338127  0.18045904  0.90247810    -0.60700
H1229       H  0.46712743  0.17292266  0.88933228     0.43300
H1230       H  0.97136238  0.03258960  0.99560357     0.43200
C1231       C  0.96828190  0.26279238  0.96498326    -0.05800
C1232       C  0.99902126  0.30385095  0.96799960    -0.33200
C1233       C  0.00072482  0.33299477  0.94086118     0.36000
C1234       C  0.97100736  0.32131066  0.91058015    -0.06200
C1235       C  0.93869485  0.28070109  0.90956896    -0.33100
C1236       C  0.93758650  0.25143968  0.93601262     0.35900
H1237       H  0.02499633  0.26907810  0.42444953     0.16300
O1238       O  0.03190183  0.37259196  0.94383994    -0.60600
H1239       H  0.91521105  0.27109104  0.88693120     0.16300
O1240       O  0.90644754  0.21169896  0.93325331    -0.60700
H1241       H  0.91449375  0.19951386  0.91143543     0.43300
H1242       H  0.02156498  0.38599127  0.96196080     0.43200
C1243       C  0.98245915  0.14174230  0.67506843    -0.05800
C1244       C  0.96683232  0.10190693  0.66003617    -0.33200
C1245       C  0.96894250  0.07169691  0.68276038     0.36000
C1246       C  0.98718767  0.08128718  0.72091929    -0.06200
C1247       C  0.50601725  0.12241390  0.73698793    -0.33100
C1248       C  0.50395182  0.15278227  0.71526979     0.35900
H1249       H  0.95143438  0.09369024  0.63137865     0.16300
O1250       O  0.95150966  0.03266024  0.66816517    -0.60600
H1251       H  0.51966241  0.12986119  0.76651131     0.16300
O1252       O  0.52091737  0.19126043  0.73129081    -0.60700
H1253       H  0.50083648  0.18976744  0.75110161     0.43300
H1254       H  0.92307284  0.01860645  0.67813513     0.43200
C1255       C  0.97074024  0.32182713  0.73042016    -0.05800
C1256       C  0.93907591  0.28094498  0.73287520    -0.33200
C1257       C  0.93749731  0.25137754  0.70671783     0.36000
C1258       C  0.96698638  0.26258577  0.67651831    -0.06200
C1259       C  0.99710598  0.30384572  0.67223485    -0.33100
C1260       C  0.99945714  0.33333264  0.69927954     0.35900
H1261       H  0.91645319  0.27144240  0.75635387     0.16300
O1262       O  0.90700233  0.21146916  0.71088236    -0.60600
H1263       H  0.02000209  0.31289713  0.64910242     0.16300
O1264       O  0.02954965  0.37331246  0.69474245    -0.60700
H1265       H  0.05394103  0.37524630  0.70776302     0.43300
H1266       H  0.91594726  0.20023863  0.73295127     0.43200
C1267       C  0.78658855  0.48777603  0.96290734    -0.05800
C1268       C  0.79980718  0.45951672  0.96843374    -0.33200
C1269       C  0.82833836  0.45879143  0.94223370     0.36000
C1270       C  0.84476900  0.48721212  0.91046827    -0.06200
C1271       C  0.83328768  0.51696124  0.90660761    -0.33100
C1272       C  0.80390483  0.51686518  0.93192140     0.35900
H1273       H  0.78664373  0.43680303  0.99198377     0.16300
O1274       O  0.83932224  0.42972548  0.94750998    -0.60600
H1275       H  0.84560316  0.53916207  0.88253890     0.16300
O1276       O  0.79318055  0.54449726  0.43087476    -0.60700
H1277       H  0.77344053  0.53486212  0.40843564     0.43300
H1278       H  0.86439942  0.44311405  0.96408925     0.43200
C1279       C  0.65184284  0.47564312  0.96566232    -0.05800
C1280       C  0.62290100  0.48269137  0.98499561    -0.33200
C1281       C  0.58979896  0.48052656  0.96376418     0.36000
C1282       C  0.58542428  0.47117304  0.92277134    -0.06200
C1283       C  0.61364401  0.46281635  0.90420839    -0.33100
C1284       C  0.64624680  0.46495978  0.92490556     0.35900
H1285       H  0.61627233  0.46870529  0.51793475     0.16300
O1286       O  0.56319988  0.48923931  0.98285934    -0.60600
H1287       H  0.59961723  0.93592928  0.87610728     0.16300
O1288       O  0.65676774  0.93054555  0.91135400    -0.60700
H1289       H  0.64270000  0.90136594  0.91945096     0.43300
H1290       H  0.54283220  0.46318673  0.99555410     0.43200
C1291       C  0.84393854  0.48673401  0.73197119    -0.05800
C1292       C  0.82421476  0.45490169  0.70406059    -0.33200
C1293       C  0.79543322  0.45426139  0.67723366     0.36000
C1294       C  0.78490012  0.48491124  0.67902298    -0.06200
C1295       C  0.80502099  0.51702764  0.70633066    -0.33100
C1296       C  0.83482659  0.51854188  0.73212955     0.35900
H1297       H  0.83068614  0.43011739  0.70343314     0.16300
O1298       O  0.77571060  0.42208044  0.65135758    -0.60600
H1299       H  0.79710082  0.54075803  0.70809003     0.16300
O1300       O  0.85268520  0.54974037  0.75932207    -0.60700
H1301       H  0.87645796  0.57204828  0.74514896     0.43300
H1302       H  0.79409336  0.42925256  0.62795782     0.43200
C1303       C  0.65373746  0.48051698  0.67593533    -0.05800
C1304       C  0.66052808  0.49367350  0.71580898    -0.33200
C1305       C  0.62936435  0.49155721  0.73940241     0.36000
C1306       C  0.59000638  0.47695391  0.72326403    -0.06200
C1307       C  0.58328248  0.46532922  0.68285310    -0.33100
C1308       C  0.61462462  0.46661054  0.65929634     0.35900
H1309       H  0.69024356  0.50528014  0.72935525     0.16300
O1310       O  0.63820839  0.50475496  0.77826537    -0.60600
H1311       H  0.55338856  0.45403587  0.66983952     0.16300
O1312       O  0.60629186  0.45338661  0.62045802    -0.60700
H1313       H  0.59679888  0.42376752  0.62170601     0.43300
H1314       H  0.63669608  0.48150550  0.79344751     0.43200
C1315       C  0.81752967  0.30596712  0.96848611    -0.05800
C1316       C  0.80715524  0.31494634  0.93119048    -0.33200
C1317       C  0.83560886  0.34760844  0.90844972     0.36000
C1318       C  0.87579386  0.37259323  0.92280838    -0.06200
C1319       C  0.88591970  0.36504628  0.96096224    -0.33100
C1320       C  0.85699992  0.33203548  0.98393557     0.35900
H1321       H  0.77680067  0.29620031  0.91909313     0.16300
O1322       O  0.82366175  0.35471605  0.87193292    -0.60600
H1323       H  0.91663862  0.38356639  0.97225913     0.16300
O1324       O  0.86841423  0.32418126  0.02028284    -0.60700
H1325       H  0.86993316  0.33770662  0.53815656     0.43300
H1326       H  0.82374364  0.33420463  0.85359106     0.43200
C1327       C  0.63150161  0.11569286  0.91327536    -0.05800
C1328       C  0.63872097  0.15582085  0.91581384    -0.33200
C1329       C  0.66921497  0.18454297  0.94066602     0.36000
C1330       C  0.69218743  0.17317542  0.96484462    -0.06200
C1331       C  0.68385200  0.13268022  0.96418756    -0.33100
C1332       C  0.65421855  0.10410848  0.93812312     0.35900
H1333       H  0.62195909  0.16567596  0.89707687     0.16300
O1334       O  0.67630806  0.22382013  0.94129020    -0.60600
H1335       H  0.70148031  0.12364195  0.98263779     0.16300
O1336       O  0.64770128  0.06506961  0.93729222    -0.60700
H1337       H  0.66985090  0.06651918  0.92046143     0.43300
H1338       H  0.69373970  0.23741178  0.91767408     0.43200
C1339       C  0.81882947  0.30484831  0.67545523    -0.05800
C1340       C  0.80741677  0.31492178  0.71159697    -0.33200
C1341       C  0.83538319  0.34810455  0.73426366     0.36000
C1342       C  0.87603956  0.37219300  0.72117109    -0.06200
C1343       C  0.88720602  0.36349955  0.68409580    -0.33100
C1344       C  0.85901701  0.32994872  0.66134362     0.35900
H1345       H  0.77662403  0.29666451  0.72281483     0.16300
O1346       O  0.82288599  0.35585117  0.76999122    -0.60600
H1347       H  0.91833370  0.38142503  0.67368148     0.16300
O1348       O  0.87162244  0.32108855  0.62631326    -0.60700
H1349       H  0.88244419  0.30309778  0.63412942     0.43300
H1350       H  0.80728515  0.36951405  0.76277951     0.43200
C1351       C  0.63359964  0.11825273  0.73412405    -0.05800
C1352       C  0.65500001  0.10491574  0.70995328    -0.33200
C1353       C  0.68443077  0.13151408  0.68245815     0.36000
C1354       C  0.69337490  0.17225841  0.67938085    -0.06200
C1355       C  0.67126786  0.18520109  0.70246785    -0.33100
C1356       C  0.64117686  0.15853965  0.72906341     0.35900
H1357       H  0.64942080  0.07400509  0.71282501     0.16300
O1358       O  0.70533966  0.11788225  0.65997791    -0.60600
H1359       H  0.67791718  0.21653992  0.70037660     0.16300
O1360       O  0.62117751  0.17311302  0.75166182    -0.60700
H1361       H  0.59863501  0.17033505  0.73442615     0.43300
H1362       H  0.72970068  0.12402126  0.67608738     0.43200
C1363       C  0.72482433  0.70711572  0.15812885     0.79900
N1364       N  0.75478163  0.74094480  0.17621521    -0.78400
C1365       C  0.78610814  0.77056206  0.15486572     0.82300
N1366       N  0.78692798  0.76643571  0.11473499    -0.78400
C1367       C  0.75696310  0.73296087  0.09602727     0.82400
N1368       N  0.72581475  0.70315934  0.11777751    -0.80100
C1369       C  0.72087129  0.70776847  0.48696333     0.79900
N1370       N  0.75066989  0.74107528  0.46789898    -0.78400
C1371       C  0.78319510  0.77035099  0.48817575     0.82300
N1372       N  0.78583511  0.76448394  0.03158144    -0.78400
C1373       C  0.75627567  0.73205418  0.05217852     0.82400
N1374       N  0.72435282  0.70140196  0.03217376    -0.80100
C1375       C  0.75315863  0.98522557  0.15394069     0.79900
N1376       N  0.75203794  0.98258289  0.11333917    -0.78400
C1377       C  0.72019652  0.98086545  0.09281787     0.82300
N1378       N  0.68928108  0.98090870  0.11303646    -0.78400
C1379       C  0.68991645  0.98323143  0.15346202     0.82400
N1380       N  0.72216819  0.98562601  0.17367538    -0.80100
C1381       C  0.75240272  0.98456037  0.48578337     0.79900
N1382       N  0.71957736  0.98110768  0.46612231    -0.78400
C1383       C  0.68694598  0.97726217  0.48648054     0.82300
N1384       N  0.68379530  0.97215791  0.02994616    -0.78400
C1385       C  0.71779968  0.97737223  0.04905352     0.82400
N1386       N  0.74863210  0.97820897  0.02761082    -0.80100
C1387       C  0.97365150  0.73280972  0.15417137     0.79900
N1388       N  0.97091751  0.73184345  0.11354619    -0.78400
C1389       C  0.97288144  0.70189554  0.09282169     0.82300
N1390       N  0.97732827  0.67307553  0.11290338    -0.78400
C1391       C  0.98028298  0.67409705  0.15335837     0.82400
N1392       N  0.97862815  0.70415743  0.17360086    -0.80100
C1393       C  0.96668523  0.72908431  0.48840120     0.79900
N1394       N  0.96870683  0.73011311  0.02765291    -0.78400
C1395       C  0.97261385  0.70149130  0.04881449     0.82300
N1396       N  0.97783561  0.67301174  0.02911912    -0.78400
C1397       C  0.97336535  0.67037770  0.48893485     0.82400
N1398       N  0.96993009  0.69962780  0.46871963    -0.80100
O1399       O  0.89890083  0.51576898  0.27582343    -0.88500
C1400       C  0.59846488  0.59149444  0.38070612     1.11500
O1401       O  0.94360376  0.97714725  0.32075547    -1.36300
O1402       O  0.57105777  0.59823019  0.27689285    -0.90000
O1403       O  0.86250244  0.94865346  0.27530900    -0.93400
O1404       O  0.94158744  0.93367521  0.23556705    -0.79500
O1405       O  0.98881037  0.55621488  0.28414062    -1.01600
C1406       C  0.55628831  0.97227570  0.24705644     1.21600
O1407       O  0.98115518  0.93017982  0.32124732    -1.36500
Mn1408     Mn  0.98375767  0.97355174  0.36514301     1.82100
O1409       O  0.52556834  0.97365980  0.23539215    -0.78600
O1410       O  0.60689907  0.56617825  0.27849820    -0.88000
C1411       C  0.55465087  0.96882703  0.39408692     1.12600
C1412       C  0.60005769  0.59339844  0.26479236     1.07400
O1413       O  0.93936233  0.93156270  0.40545510    -0.79500
O1414       O  0.52427033  0.51505187  0.32155105    -1.33200
O1415       O  0.90200834  0.89736721  0.35718210    -0.98700
C1416       C  0.97680504  0.85211108  0.26360236     1.06100
Mn1417     Mn  0.58245208  0.52086976  0.32220391     1.48600
O1418       O  0.94300874  0.84855500  0.27430594    -0.87900
Mn1419     Mn  0.88431342  0.92559304  0.32035225     1.49600
O1420       O  0.89816991  0.51593702  0.36524613    -0.91800
C1421       C  0.98835617  0.55081613  0.24826225     1.19300
C1422       C  0.87014948  0.98249291  0.37894691     1.11300
Mn1423     Mn  0.98526588  0.97460456  0.27724909     1.81000
O1424       O  0.55941118  0.96910797  0.35811112    -0.97000
Mn1425     Mn  0.94278896  0.53324958  0.32102898     1.49300
C1426       C  0.87092669  0.98371219  0.26247871     1.07800
Mn1427     Mn  0.53213663  0.92326917  0.32048765     1.49900
C1428       C  0.97374971  0.85078965  0.37972837     1.10800
O1429       O  0.90311736  0.89912117  0.28306272    -1.02800
O1430       O  0.60515242  0.56385959  0.36809308    -0.92400
C1431       C  0.90837001  0.90416888  0.24725598     1.22000
O1432       O  0.56053263  0.97102831  0.28342445    -1.03100
O1433       O  0.57114419  0.59770279  0.36603085    -0.90500
O1434       O  0.51053919  0.87773021  0.36356455    -0.90200
O1435       O  0.86182329  0.94761923  0.36569214    -0.90200
Mn1436     Mn  0.52640786  0.57201933  0.32144418     1.47900
O1437       O  0.52480285  0.97131119  0.40632819    -0.78700
C1438       C  0.90685606  0.90164750  0.39313026     1.15100
O1439       O  0.98560126  0.51809252  0.23663936    -0.77400
O1440       O  0.98529098  0.51748551  0.40651070    -0.77000
Mn1441     Mn  0.92486315  0.87456681  0.31967567     1.51100
O1442       O  0.51015854  0.88000148  0.27460044    -0.89300
O1443       O  0.98815389  0.55561218  0.35884245    -0.96900
O1444       O  0.94119079  0.84614968  0.36395565    -0.91900
C1445       C  0.98722719  0.54993732  0.39477011     1.12900
C1446       C  0.97965305  0.64009950  0.46663190    -0.05800
C1447       C  0.96753351  0.60130917  0.48305997    -0.33200
C1448       C  0.97137904  0.57180153  0.46102387     0.36000
C1449       C  0.98746708  0.58092878  0.42196659    -0.06200
C1450       C  0.00143493  0.62036291  0.40663055    -0.33100
C1451       C  0.99761096  0.64961264  0.42832962     0.35900
H1452       H  0.95920671  0.59591459  0.01223286     0.16300
O1453       O  0.95728111  0.53363947  0.47705479    -0.60600
H1454       H  0.51709758  0.62420607  0.37876529     0.16300
O1455       O  0.52120732  0.68618493  0.41477024    -0.60700
H1456       H  0.50292260  0.68640706  0.39369845     0.43300
H1457       H  0.97975484  0.53615736  0.49417364     0.43200
C1458       C  0.96537097  0.76142627  0.46505637    -0.05800
C1459       C  0.99761061  0.80183439  0.46765015    -0.33200
C1460       C  0.00029223  0.83170973  0.44087950     0.36000
C1461       C  0.97010943  0.82139272  0.41125554    -0.06200
C1462       C  0.93670774  0.78130769  0.41037197    -0.33100
C1463       C  0.93457483  0.75135436  0.43652331     0.35900
H1464       H  0.01195520  0.81163864  0.99643483     0.16300
O1465       O  0.03292841  0.87060205  0.44348878    -0.60600
H1466       H  0.91299998  0.77259027  0.38812135     0.16300
O1467       O  0.90231318  0.71217407  0.43391749    -0.60700
H1468       H  0.90953197  0.69923215  0.41215107     0.43300
H1469       H  0.02453081  0.88477201  0.46281122     0.43200
C1470       C  0.98576601  0.64322199  0.17546789    -0.05800
C1471       C  0.96921285  0.60325358  0.16052451    -0.33200
C1472       C  0.97102518  0.57280584  0.18302684     0.36000
C1473       C  0.99005296  0.58233231  0.22079301    -0.06200
C1474       C  0.45833796  0.59652708  0.23773246    -0.33100
C1475       C  0.45611837  0.62670995  0.21578060     0.35900
H1476       H  0.95341199  0.59516630  0.13207418     0.16300
O1477       O  0.95264914  0.53365922  0.16858272    -0.60600
H1478       H  0.44653990  0.59055223  0.26800394     0.16300
O1479       O  0.43869336  0.64686716  0.23337679    -0.60700
H1480       H  0.40929708  0.63031841  0.22700728     0.43300
H1481       H  0.92467673  0.51991082  0.17972338     0.43200
C1482       C  0.97721651  0.82418873  0.23262433    -0.05800
C1483       C  0.94438946  0.80362081  0.20585509    -0.33200
C1484       C  0.94344333  0.77497837  0.17849299     0.36000
C1485       C  0.97552182  0.76656373  0.17776340    -0.06200
C1486       C  0.00854685  0.78766713  0.20371769    -0.33100
C1487       C  0.00972752  0.81616089  0.23082174     0.35900
H1488       H  0.91906605  0.80913575  0.20662501     0.16300
O1489       O  0.91040754  0.75422245  0.15384462    -0.60600
H1490       H  0.03326696  0.78118278  0.20370933     0.16300
O1491       O  0.04229472  0.83478533  0.25641191    -0.60700
H1492       H  0.03440664  0.81663103  0.28022631     0.43300
H1493       H  0.88927649  0.73210263  0.17063782     0.43200
C1494       C  0.78660622  0.98726839  0.46243167    -0.05800
C1495       C  0.79755360  0.95717236  0.46676495    -0.33200
C1496       C  0.82552351  0.95570231  0.44044197     0.36000
C1497       C  0.84348178  0.98502616  0.40970575    -0.06200
C1498       C  0.83428324  0.01656412  0.40708595    -0.33100
C1499       C  0.80558616  0.01739031  0.43266309     0.35900
H1500       H  0.78304906  0.93371112  0.48947183     0.16300
O1501       O  0.83455170  0.92513182  0.44465365    -0.60600
H1502       H  0.84798175  0.03965262  0.38391594     0.16300
O1503       O  0.83052010  0.03464433  0.99240068    -0.60700
H1504       H  0.82868464  0.05682942  0.97852235     0.43300
H1505       H  0.86016258  0.93737335  0.46043772     0.43200
C1506       C  0.65060011  0.97172845  0.46461353    -0.05800
C1507       C  0.62472200  0.98403676  0.48189220    -0.33200
C1508       C  0.59175887  0.98143916  0.46030171     0.36000
C1509       C  0.58460419  0.96668551  0.42077548    -0.06200
C1510       C  0.60909767  0.95225180  0.40460371    -0.33100
C1511       C  0.64151714  0.95439820  0.42610015     0.35900
H1512       H  0.62432391  0.98776079  0.01521903     0.16300
O1513       O  0.56840502  0.99559924  0.47723449    -0.60600
H1514       H  0.62313022  0.47311317  0.37018539     0.16300
O1515       O  0.68399136  0.47445619  0.40216749    -0.60700
H1516       H  0.67555327  0.44563653  0.39606360     0.43300
H1517       H  0.54722624  0.97217949  0.49273491     0.43200
C1518       C  0.84468031  0.98638864  0.23084944    -0.05800
C1519       C  0.82257038  0.95353054  0.20446883    -0.33200
C1520       C  0.79438658  0.95387835  0.17739689     0.36000
C1521       C  0.78708502  0.98681826  0.17716543    -0.06200
C1522       C  0.80993917  0.02009935  0.20248692    -0.33100
C1523       C  0.83908706  0.02052509  0.22850764     0.35900
H1524       H  0.82655192  0.92715087  0.20533861     0.16300
O1525       O  0.77206567  0.92062533  0.15336002    -0.60600
H1526       H  0.80459503  0.04563638  0.20262414     0.16300
O1527       O  0.85986828  0.05335900  0.25344697    -0.60700
H1528       H  0.88396055  0.07336022  0.23784095     0.43300
H1529       H  0.78868312  0.92604599  0.12883729     0.43200
C1530       C  0.65467625  0.98025125  0.17573813    -0.05800
C1531       C  0.65074500  0.96970269  0.21624726    -0.33200
C1532       C  0.61820362  0.96556718  0.23871052     0.36000
C1533       C  0.58832008  0.97283675  0.22120659    -0.06200
C1534       C  0.59167084  0.98292190  0.18046599    -0.33100
C1535       C  0.62440605  0.98641116  0.15763586     0.35900
H1536       H  0.67289341  0.96406153  0.23093006     0.16300
O1537       O  0.61658390  0.95493306  0.27827207    -0.60600
H1538       H  0.56945264  0.98889974  0.16648713     0.16300
O1539       O  0.62720737  0.99732142  0.11812900    -0.60700
H1540       H  0.60927726  0.97153386  0.10371547     0.43300
H1541       H  0.60003882  0.92471990  0.27886262     0.43200
C1542       C  0.81493945  0.80673732  0.46654732    -0.05800
C1543       C  0.80506910  0.81648901  0.42927811    -0.33200
C1544       C  0.83442487  0.84819671  0.40607042     0.36000
C1545       C  0.87488091  0.87148754  0.41995711    -0.06200
C1546       C  0.88457068  0.86335931  0.45813781    -0.33100
C1547       C  0.85492347  0.83126995  0.48148812     0.35900
H1548       H  0.77439568  0.79909864  0.41756608     0.16300
O1549       O  0.82297959  0.85651097  0.36989976    -0.60600
H1550       H  0.91547801  0.88083300  0.46926289     0.16300
O1551       O  0.86601379  0.82290021  0.51777175    -0.60700
H1552       H  0.86312748  0.84036736  0.03794769     0.43300
H1553       H  0.82172927  0.83557898  0.35127448     0.43200
C1554       C  0.62550918  0.61950330  0.41205385    -0.05800
C1555       C  0.63725541  0.66095274  0.40949730    -0.33200
C1556       C  0.66766491  0.68973410  0.43438394     0.36000
C1557       C  0.68576404  0.67713769  0.46367267    -0.06200
C1558       C  0.67214697  0.63537003  0.46821837    -0.33100
C1559       C  0.64274811  0.60662899  0.44214390     0.35900
H1560       H  0.62440632  0.67149401  0.38663765     0.16300
O1561       O  0.67952001  0.73024537  0.42987555    -0.60600
H1562       H  0.68573123  0.62522715  0.49068255     0.16300
O1563       O  0.63096267  0.56613574  0.44641145    -0.60700
H1564       H  0.65305909  0.56319795  0.43406888     0.43300
H1565       H  0.69765513  0.73963129  0.40616510     0.43200
C1566       C  0.81733307  0.80787847  0.17534881    -0.05800
C1567       C  0.80704393  0.81848043  0.21176806    -0.33200
C1568       C  0.83584474  0.85152403  0.23388735     0.36000
C1569       C  0.87639467  0.87463707  0.22013501    -0.06200
C1570       C  0.88635822  0.86577637  0.18253702    -0.33100
C1571       C  0.85713722  0.83255745  0.16012503     0.35900
H1572       H  0.77645874  0.80076868  0.22364947     0.16300
O1573       O  0.82432858  0.85993129  0.26986640    -0.60600
H1574       H  0.91728431  0.88319530  0.17147270     0.16300
O1575       O  0.86831249  0.82367007  0.12426731    -0.60700
H1576       H  0.87833865  0.80471213  0.13095884     0.43300
H1577       H  0.80593943  0.87058685  0.26307967     0.43200
C1578       C  0.62861871  0.62185497  0.23470688    -0.05800
C1579       C  0.64344842  0.60733046  0.20422889    -0.33200
C1580       C  0.67374683  0.63456883  0.17788102     0.36000
C1581       C  0.69024551  0.67697023  0.18250019    -0.06200
C1582       C  0.67512515  0.69128924  0.21283543    -0.33100
C1583       C  0.64427579  0.66415229  0.23847328     0.35900
H1584       H  0.63188769  0.57483396  0.20119906     0.16300
O1585       O  0.68801630  0.61953499  0.14879668    -0.60600
H1586       H  0.68762263  0.72382114  0.21698106     0.16300
O1587       O  0.63174952  0.67943021  0.26894536    -0.60700
H1588       H  0.61100067  0.68469958  0.25680690     0.43300
H1589       H  0.71038996  0.61735149  0.16165504     0.43200
C1590       C  0.72693098  0.70380569  0.65367840     0.79900
N1591       N  0.75673980  0.73734226  0.67216850    -0.78400
C1592       C  0.78717186  0.76811456  0.65100716     0.82300
N1593       N  0.78713511  0.76543412  0.61069206    -0.78400
C1594       C  0.75719779  0.73225450  0.59156851     0.82400
N1595       N  0.72686963  0.70129428  0.61309174    -0.80100
C1596       C  0.72215406  0.70343692  0.99176410     0.79900
N1597       N  0.75158316  0.73603220  0.97165462    -0.78400
C1598       C  0.78375691  0.76662009  0.99120668     0.82300
N1599       N  0.78539669  0.76623529  0.52818749    -0.78400
C1600       C  0.75575582  0.73313060  0.54780442     0.82400
N1601       N  0.72345079  0.70368314  0.52712744    -0.80100
C1602       C  0.75074926  0.98100374  0.65209047     0.79900
N1603       N  0.75131426  0.98168546  0.61157098    -0.78400
C1604       C  0.72020136  0.98116640  0.59101485     0.82300
N1605       N  0.68844642  0.97983333  0.61123068    -0.78400
C1606       C  0.68767528  0.97912111  0.65188967     0.82400
N1607       N  0.71909486  0.97971348  0.67198662    -0.80100
C1608       C  0.74511667  0.97338726  0.98727784     0.79900
N1609       N  0.71091673  0.96773151  0.96881586    -0.78400
C1610       C  0.68010170  0.96712939  0.98967274     0.82300
N1611       N  0.68776031  0.97784950  0.52701820    -0.78400
C1612       C  0.72040963  0.98130246  0.54712543     0.82400
N1613       N  0.75262110  0.98416091  0.52645167    -0.80100
C1614       C  0.97381151  0.73181583  0.65529635     0.79900
N1615       N  0.96995653  0.73065997  0.61475830    -0.78400
C1616       C  0.97043283  0.70010686  0.59365615     0.82300
N1617       N  0.97464294  0.67088351  0.61322255    -0.78400
C1618       C  0.97869114  0.67205129  0.65355802     0.82400
N1619       N  0.97823707  0.70254525  0.67413879    -0.80100
C1620       C  0.96891495  0.72947038  0.98699947     0.79900
N1621       N  0.96686544  0.72946979  0.52904017    -0.78400
C1622       C  0.96919175  0.69967676  0.54970870     0.82300
N1623       N  0.97258422  0.67033568  0.52953607    -0.78400
C1624       C  0.97906658  0.67286452  0.98852812     0.82400
N1625       N  0.97415304  0.70094924  0.96784011    -0.80100
O1626       O  0.90041442  0.51774265  0.77641887    -0.88500
C1627       C  0.60326971  0.59076581  0.88078267     1.11500
O1628       O  0.93924923  0.97458317  0.82075527    -1.36300
O1629       O  0.57796154  0.59950903  0.77795474    -0.90000
O1630       O  0.85883092  0.94499584  0.77467447    -0.93400
O1631       O  0.93931772  0.93258198  0.73460061    -0.79500
O1632       O  0.99058633  0.55599172  0.78340038    -1.01600
C1633       C  0.55756991  0.97326621  0.74855468     1.21600
O1634       O  0.97853358  0.92902135  0.82120616    -1.36500
Mn1635     Mn  0.97972690  0.97183560  0.86542609     1.82100
O1636       O  0.52695726  0.97427569  0.73592178    -0.78600
O1637       O  0.60882334  0.56266572  0.77655455    -0.88000
C1638       C  0.55332201  0.96807262  0.89496844     1.12600
C1639       C  0.60466075  0.59201510  0.76403461     1.07400
O1640       O  0.93557668  0.92882548  0.90504460    -0.79500
O1641       O  0.52609813  0.51673584  0.82178610    -1.33200
O1642       O  0.89873744  0.89396013  0.85653058    -0.98700
C1643       C  0.97663233  0.85181913  0.76353126     1.06100
Mn1644     Mn  0.58271708  0.51874443  0.82165927     1.48600
O1645       O  0.94249058  0.84708757  0.77432537    -0.87900
Mn1646     Mn  0.88050470  0.92227635  0.81953527     1.49600
O1647       O  0.90076551  0.51784960  0.86576777    -0.91800
C1648       C  0.98964194  0.55011151  0.74754021     1.19300
C1649       C  0.86328106  0.97605587  0.87753410     1.11300
Mn1650     Mn  0.98154056  0.97338278  0.77750332     1.81000
O1651       O  0.55944583  0.96941317  0.85909985    -0.97000
Mn1652     Mn  0.94500773  0.53436919  0.82092190     1.49300
C1653       C  0.86690577  0.97976213  0.76141611     1.07800
Mn1654     Mn  0.53423584  0.92544347  0.81998093     1.49900
C1655       C  0.97258364  0.84986418  0.87928844     1.10800
O1656       O  0.89978335  0.89526459  0.78117149    -1.02800
O1657       O  0.60886644  0.56308407  0.86619524    -0.92400
C1658       C  0.90641457  0.90191034  0.74501567     1.22000
O1659       O  0.56089896  0.97221019  0.78454184    -1.03100
O1660       O  0.57616655  0.59806094  0.86758339    -0.90500
O1661       O  0.51262123  0.87931350  0.86236547    -0.90200
O1662       O  0.85688045  0.94233117  0.86353718    -0.90200
Mn1663     Mn  0.53244607  0.57551535  0.82200421     1.47900
O1664       O  0.52322711  0.97056121  0.90644433    -0.78700
C1665       C  0.90355099  0.89830772  0.89262143     1.15100
O1666       O  0.98698378  0.51739294  0.73607930    -0.77400
O1667       O  0.98736738  0.51822619  0.90580847    -0.77000
Mn1668     Mn  0.92341890  0.87205253  0.81945956     1.51100
O1669       O  0.51366476  0.88289162  0.77370227    -0.89300
O1670       O  0.99092459  0.55668294  0.85817535    -0.96900
O1671       O  0.93987777  0.84450497  0.86359631    -0.91900
C1672       C  0.99033866  0.55116091  0.89411457     1.12900
C1673       C  0.98603826  0.64281780  0.96663814    -0.05800
C1674       C  0.97309695  0.60380792  0.98286378    -0.33200
C1675       C  0.97605842  0.57390998  0.96063222     0.36000
C1676       C  0.99206965  0.58280748  0.92152929    -0.06200
C1677       C  0.00734764  0.62261855  0.90654555    -0.33100
C1678       C  0.00442794  0.65232543  0.92852743     0.35900
H1679       H  0.95394903  0.59338987  0.51256015     0.16300
O1680       O  0.96091240  0.53552291  0.97646012    -0.60600
H1681       H  0.52500054  0.63023321  0.87993791     0.16300
O1682       O  0.53019999  0.69281241  0.91618121    -0.60700
H1683       H  0.51267847  0.69432314  0.89502378     0.43300
H1684       H  0.98378111  0.53668692  0.99187225     0.43200
C1685       C  0.96564603  0.76048299  0.96308990    -0.05800
C1686       C  0.99175053  0.80219869  0.97082356    -0.33200
C1687       C  0.99386473  0.83194202  0.94422491     0.36000
C1688       C  0.96903110  0.82006002  0.90989659    -0.06200
C1689       C  0.94101313  0.77844906  0.90372337    -0.33100
C1690       C  0.93972446  0.74873651  0.92958155     0.35900
H1691       H  0.02169762  0.80984091  0.48932123     0.16300
O1692       O  0.02078213  0.87238452  0.95165542    -0.60600
H1693       H  0.92133064  0.76875666  0.87769029     0.16300
O1694       O  0.91307058  0.70822543  0.92186920    -0.60700
H1695       H  0.92648563  0.70047499  0.90105032     0.43300
H1696       H  0.00438016  0.88293996  0.96441177     0.43200
C1697       C  0.98479469  0.64134508  0.67519418    -0.05800
C1698       C  0.96844445  0.60139643  0.66022379    -0.33200
C1699       C  0.97115438  0.57127019  0.68244474     0.36000
C1700       C  0.99079106  0.58117419  0.71991873    -0.06200
C1701       C  0.50702134  0.62334932  0.73442498    -0.33100
C1702       C  0.50487564  0.65351714  0.71230452     0.35900
H1703       H  0.95220655  0.59309198  0.63201113     0.16300
O1704       O  0.95323158  0.53213244  0.66801458    -0.60600
H1705       H  0.52297123  0.63169287  0.76281519     0.16300
O1706       O  0.52426493  0.69279035  0.72659313    -0.60700
H1707       H  0.50585731  0.69322178  0.74730475     0.43300
H1708       H  0.92452397  0.51877246  0.67711833     0.43200
C1709       C  0.97752970  0.82379747  0.73334757    -0.05800
C1710       C  0.95140448  0.81102675  0.69995387    -0.33200
C1711       C  0.95096128  0.78240943  0.67283710     0.36000
C1712       C  0.97620625  0.76562034  0.67957749    -0.06200
C1713       C  0.00267969  0.77914087  0.71254015    -0.33100
C1714       C  0.00357371  0.80785906  0.73910013     0.35900
H1715       H  0.93117364  0.82298575  0.69508225     0.16300
O1716       O  0.92498140  0.77017898  0.64073406    -0.60600
H1717       H  0.02249999  0.76682199  0.71823121     0.16300
O1718       O  0.02899762  0.81890805  0.77162634    -0.60700
H1719       H  0.01247940  0.79959072  0.79321561     0.43300
H1720       H  0.89857529  0.74803904  0.65110314     0.43200
C1721       C  0.77697509  0.97268102  0.96286027    -0.05800
C1722       C  0.76495622  0.94207553  0.93395237    -0.33200
C1723       C  0.79296773  0.94239220  0.90687337     0.36000
C1724       C  0.83401984  0.97437456  0.90775160    -0.06200
C1725       C  0.84623340  0.00483122  0.93709463    -0.33100
C1726       C  0.81803481  0.00395539  0.96477183     0.35900
H1727       H  0.73335671  0.91804300  0.93187025     0.16300
O1728       O  0.77921055  0.91264188  0.87803253    -0.60600
H1729       H  0.87754571  0.02953475  0.93833197     0.16300
O1730       O  0.79621198  0.04777353  0.42837200    -0.60700
H1731       H  0.77616807  0.03871202  0.40623987     0.43300
H1732       H  0.77639594  0.88807413  0.89172644     0.43200
C1733       C  0.64366918  0.96222662  0.96802263    -0.05800
C1734       C  0.61860106  0.97571451  0.98507439    -0.33200
C1735       C  0.58730599  0.97592896  0.96264932     0.36000
C1736       C  0.58119373  0.96308346  0.92245553    -0.06200
C1737       C  0.60446379  0.94713344  0.90657801    -0.33100
C1738       C  0.63496318  0.94622883  0.92885992     0.35900
H1739       H  0.63077898  0.99691270  0.51170979     0.16300
O1740       O  0.56518521  0.99164454  0.97930120    -0.60600
H1741       H  0.61093956  0.45480962  0.87280529     0.16300
O1742       O  0.67253661  0.45667177  0.90449358    -0.60700
H1743       H  0.66100303  0.42674565  0.90724114     0.43300
H1744       H  0.54207720  0.96821882  0.99299844     0.43200
C1745       C  0.84111810  0.98135101  0.72871388    -0.05800
C1746       C  0.81113500  0.94471655  0.71098402    -0.33200
C1747       C  0.78268385  0.94454856  0.68424900     0.36000
C1748       C  0.78387958  0.98124766  0.67479513    -0.06200
C1749       C  0.81488727  0.01807319  0.69039698    -0.33100
C1750       C  0.84372044  0.01850327  0.71681221     0.35900
H1751       H  0.80871863  0.91582124  0.71882598     0.16300
O1752       O  0.75233859  0.90811438  0.66939665    -0.60600
H1753       H  0.81596458  0.04650142  0.68307990     0.16300
O1754       O  0.87266015  0.05518132  0.73255555    -0.60700
H1755       H  0.89369064  0.06810446  0.71150569     0.43300
H1756       H  0.76414284  0.90288696  0.64525714     0.43200
C1757       C  0.65277228  0.97651224  0.67480125    -0.05800
C1758       C  0.64861894  0.96505230  0.71522331    -0.33200
C1759       C  0.61745143  0.96304946  0.73875182     0.36000
C1760       C  0.58903839  0.97284991  0.72236892    -0.06200
C1761       C  0.59244543  0.98361670  0.68169547    -0.33100
C1762       C  0.62392734  0.98544826  0.65791392     0.35900
H1763       H  0.66977141  0.95748810  0.72911250     0.16300
O1764       O  0.61573437  0.95213633  0.77821141    -0.60600
H1765       H  0.57126451  0.99152817  0.66849651     0.16300
O1766       O  0.62709723  0.99767352  0.61879209    -0.60700
H1767       H  0.60833360  0.97260777  0.60377222     0.43300
H1768       H  0.60037308  0.92185488  0.77845178     0.43200
C1769       C  0.81468121  0.80260345  0.96830355    -0.05800
C1770       C  0.80391261  0.81034203  0.93047915    -0.33200
C1771       C  0.83218963  0.84203182  0.90639631     0.36000
C1772       C  0.87246533  0.86743509  0.91988335    -0.06200
C1773       C  0.88308376  0.86102054  0.95842385    -0.33100
C1774       C  0.85456718  0.82888158  0.98262320     0.35900
H1775       H  0.77329886  0.79144108  0.91905799     0.16300
O1776       O  0.81985464  0.84809486  0.86968625    -0.60600
H1777       H  0.91392198  0.87999105  0.96926374     0.16300
O1778       O  0.86672079  0.82221995  0.01914347    -0.60700
H1779       H  0.86319635  0.84119910  0.53702635     0.43300
H1780       H  0.82018144  0.82735425  0.85189979     0.43200
C1781       C  0.63038785  0.61666999  0.91362128    -0.05800
C1782       C  0.63116008  0.65314038  0.92357223    -0.33200
C1783       C  0.65981106  0.68075393  0.95065783     0.36000
C1784       C  0.68753400  0.67172724  0.96923836    -0.06200
C1785       C  0.68537531  0.63440895  0.96155572    -0.33100
C1786       C  0.65733700  0.60702669  0.93375059     0.35900
H1787       H  0.61069173  0.66127329  0.90907571     0.16300
O1788       O  0.66093056  0.71685859  0.95840653    -0.60600
H1789       H  0.70681695  0.62735609  0.97565838     0.16300
O1790       O  0.65692297  0.57122529  0.92630218    -0.60700
H1791       H  0.67987290  0.57864748  0.90763109     0.43300
H1792       H  0.67865172  0.73605334  0.93735065     0.43200
C1793       C  0.81774911  0.80533030  0.67201406    -0.05800
C1794       C  0.80738274  0.81347627  0.70956689    -0.33200
C1795       C  0.83531430  0.84640621  0.73209987     0.36000
C1796       C  0.87521057  0.87235145  0.71746397    -0.06200
C1797       C  0.88525824  0.86579357  0.67895500    -0.33100
C1798       C  0.85680614  0.83235079  0.65620710     0.35900
H1799       H  0.77740812  0.79383546  0.72212437     0.16300
O1800       O  0.82375107  0.85155516  0.76953557    -0.60600
H1801       H  0.91571269  0.88517826  0.66737398     0.16300
O1802       O  0.86804913  0.82559954  0.61938252    -0.60700
H1803       H  0.88057366  0.80854288  0.62463881     0.43300
H1804       H  0.80555857  0.86291241  0.76505720     0.43200
C1805       C  0.63320642  0.61945612  0.73283418    -0.05800
C1806       C  0.65353621  0.60570121  0.70760945    -0.33200
C1807       C  0.68298661  0.63231631  0.68014731     0.36000
C1808       C  0.69279364  0.67334423  0.67800997    -0.06200
C1809       C  0.67234327  0.68694472  0.70275087    -0.33100
C1810       C  0.64248756  0.66041456  0.72955197     0.35900
H1811       H  0.64701661  0.57441914  0.70952854     0.16300
O1812       O  0.70297144  0.61838281  0.65664681    -0.60600
H1813       H  0.68006572  0.71866257  0.70172161     0.16300
O1814       O  0.62445573  0.67565221  0.75411677    -0.60700
H1815       H  0.60212256  0.67482255  0.73796398     0.43300
H1816       H  0.72608374  0.62152316  0.67316268     0.43200
loop_ 
_geom_bond_atom_site_label_1 
_geom_bond_atom_site_label_2 
_geom_bond_distance 
_geom_bond_site_symmetry_2 
_ccdc_geom_bond_type 
C1            N2   1.353       .  A
C1            N6   1.357       .  A
C1          C219   1.472       .  S
N2            C3   1.356       .  A
C3            N4   1.355       .  A
C3          C204   1.485       .  S
N4            C5   1.361       .  A
C5            N6   1.363       .  A
C5           C11   1.464       .  S
C7            N8   1.352       .  A
C7          N239   1.359       .  A
C7          C195   1.468       .  S
N8            C9   1.354       .  A
C9          N237   1.356       .  A
C9          C180   1.488       .  S
N10          C11   1.360       .  A
N10         C236   1.356   1_554  A
C11          N12   1.359       .  A
N12         C234   1.356   1_554  A
C13          N14   1.360       .  A
C13          N18   1.356       .  A
C13         C159   1.479       .  S
N14          C15   1.363       .  A
C15          N16   1.363       .  A
C15          C23   1.469       .  S
N16          C17   1.357       .  A
C17          N18   1.356       .  A
C17         C168   1.490       .  S
C19          N20   1.356       .  A
C19         N251   1.362       .  A
C19         C132   1.484       .  S
N20          C21   1.355       .  A
C21         N249   1.357       .  A
C21         C144   1.487       .  S
N22          C23   1.360       .  A
N22         C248   1.356   1_554  A
C23          N24   1.364       .  A
N24         C246   1.361   1_554  A
C25          N26   1.357       .  A
C25          N30   1.351       .  A
C25         C123   1.468       .  S
N26          C27   1.362       .  A
C27          N28   1.364       .  A
C27          C33   1.469       .  S
N28          C29   1.359       .  A
C29          N30   1.353       .  A
C29         C108   1.485       .  S
C31          N36   1.356       .  A
C31         N259   1.357       .  A
C31          C96   1.473       .  S
N32          C33   1.362       .  A
N32         C258   1.358   1_554  A
C33          N34   1.361       .  A
N34         C262   1.358   1_554  A
C35          N36   1.356       .  A
C35         N261   1.357       .  A
C35          C84   1.488       .  S
O37         Mn63   2.094       .  S
O37         C518   1.272   1_545  A
C38         C192   1.482       .  S
C38          O71   1.268       .  A
C38          O68   1.271       .  A
O39         Mn46   2.181       .  S
O39         Mn57   2.113       .  S
O39         Mn61   2.180       .  S
O39        Mn517   2.114       .  S
O40         Mn74   2.077       .  S
O40          C50   1.269       .  A
O41         Mn57   2.096       .  S
O41          C64   1.271       .  A
O42         Mn61   2.137       .  S
O42          C69   1.256       .  A
O43         Mn63   1.957       .  S
O43        Mn982   1.960       .  S
O43          C59   1.220       .  S
C44         C171   1.488       .  S
C44          O47   1.255       .  A
C44          O70   1.212       .  S
O45         Mn46   2.174       .  S
O45         Mn79   2.113       .  S
O45         Mn61   2.180       .  S
O45        Mn973   2.104       .  S
Mn46         O51   2.119       .  S
Mn46        O983   2.142       .  S
Mn46        O532   2.115       .  S
Mn46       O1414   2.184       .  S
O47        Mn969   2.136   1_455  S
O48         Mn55   2.104       .  S
O48          C50   1.273       .  A
C49         C147   1.483       .  S
C49          O75   1.255       .  A
C49          O62   1.217       .  S
C50         C216   1.483       .  S
O51          C76   1.254       .  A
O52         Mn55   2.117       .  S
O52         Mn74   2.107       .  S
O52       Mn1408   2.180   1_445  S
O52       Mn1423   2.180   1_445  S
O53         Mn57   1.953       .  S
O53         Mn79   1.960       .  S
O53          C76   1.216       .  S
C54         C120   1.476       .  S
C54          O56   1.274       .  A
C54         O988   1.266       .  A
Mn55         O68   2.098       .  S
Mn55        O524   1.946   1_545  S
Mn55        O516   1.949   1_545  S
O56         Mn79   2.108       .  S
Mn57         O73   2.093       .  S
Mn57         O67   1.945       .  S
O58         Mn63   2.099       .  S
O58         C514   1.272   1_545  A
C59         C111   1.479       .  S
C59          O77   1.254       .  A
C60         C135   1.481       .  S
C60          O73   1.272       .  A
C60         O512   1.272       .  A
Mn61        O955   2.131       .  S
Mn61        O531   2.130       .  S
Mn61       O1414   2.183       .  S
O62         Mn65   1.954       .  S
O62        Mn509   1.963       .  S
Mn63        O493   2.125   1_545  S
Mn63         O81   1.957       .  S
C64         C156   1.481       .  S
C64         O491   1.272       .  A
Mn65         O72   2.077       .  S
Mn65         O80   2.093       .  S
Mn65        O953   2.107   1_455  S
Mn65         O70   1.947       .  S
C66          C99   1.480       .  S
C66          O82   1.272       .  A
C66         O980   1.269       .  A
O67         Mn79   1.944       .  S
O67          C69   1.212       .  S
C69         C207   1.484       .  S
O70        Mn509   1.942       .  S
O71         Mn74   2.073       .  S
O72         C974   1.269   1_455  A
Mn74        O951   2.007   1_455  S
Mn74        O989   1.964   1_455  S
O75        Mn954   2.119   1_455  S
C76         C183   1.485       .  S
O77        Mn515   2.108   1_545  S
O78        Mn500   2.125   1_545  S
O78          C83   1.255       .  A
Mn79         O82   2.098       .  S
O80         C962   1.272   1_455  A
O81        Mn982   1.950       .  S
O81          C83   1.216       .  S
C83          C87   1.483       .  S
C84          C85   1.410       .  A
C84          C89   1.411       .  A
C85          C86   1.408       .  A
C85         H317   1.083       .  S
C86          C87   1.408       .  A
C86          O91   1.371       .  S
C87          C88   1.404       .  A
C88          C89   1.395       .  A
C88        H1000   1.084       .  S
C89        O1001   1.373       .  S
H90         C312   1.083   1_554  S
O91          H95   0.991       .  S
H92         C996   1.084       .  S
O93         C997   1.373       .  S
O93          H94   0.992       .  S
C96          C97   1.401       .  A
C96         C101   1.408       .  A
C97          C98   1.394       .  A
C97         H329   1.084       .  S
C98          C99   1.411       .  A
C98         O103   1.372       .  S
C99         C100   1.407       .  A
C100        C101   1.405       .  A
C100        H104   1.084       .  S
C101        O105   1.372       .  S
H102        C324   1.084       .  S
O103        H107   0.992       .  S
O105        H106   0.992       .  S
C108        C109   1.408       .  A
C108       C1021   1.412       .  A
C109        C110   1.407       .  A
C109        H114   1.083       .  S
C110        C111   1.410       .  A
C110        O115   1.371       .  S
C111       C1020   1.402       .  A
C112        C113   1.386   1_455  A
C112       C1019   1.408   1_455  A
C112        H116   1.084       .  S
C113       C1016   1.409       .  A
C113        O117   1.373   1_655  S
O115        H119   0.992       .  S
O117        H118   0.992   1_455  S
C120        C121   1.405       .  A
C120        C125   1.412       .  A
C121        C122   1.403       .  A
C121        H126   1.083       .  S
C122        C123   1.407       .  A
C122        O127   1.371       .  S
C123        C124   1.400       .  A
C124        C125   1.393       .  A
C124        H128   1.084       .  S
C125        O129   1.373       .  S
O127        H131   0.992       .  S
O129        H130   0.993       .  S
C132        C133   1.405       .  A
C132        C137   1.410       .  A
C133        C134   1.397       .  A
C133        H138   1.084       .  S
C134        C135   1.409       .  A
C134        O139   1.372       .  S
C135        C136   1.406       .  A
C136        C137   1.406       .  A
C136        H140   1.082       .  S
C137        O368   1.371       .  S
O139        H143   0.991       .  S
O141        C364   1.372       .  S
O141        H142   0.991       .  S
C144        C145   1.410       .  A
C144        C149   1.411       .  A
C145        C146   1.407       .  A
C145        H377   1.083       .  S
C146        C147   1.409       .  A
C146        O151   1.371       .  S
C147        C148   1.405       .  A
C148        C149   1.393       .  A
C148        H606   1.084       .  S
C149        O607   1.372       .  S
H150        C372   1.083   1_554  S
O151        H155   0.992       .  S
H152        C602   1.084       .  S
O153        C603   1.372       .  S
O153        H154   0.992       .  S
C156        C157   1.408       .  A
C156        C161   1.409       .  A
C157        C158   1.408       .  A
C157        H162   1.084       .  S
C158        C159   1.410       .  A
C158        O163   1.371       .  S
C159        C160   1.402       .  A
C160        C161   1.395       .  A
C160        H164   1.084       .  S
C161        O165   1.372       .  S
O163        H167   0.992       .  S
O165        H166   0.991       .  S
C168        C169   1.402       .  A
C168        C173   1.416       .  A
C169        C170   1.391       .  A
C169        H174   1.083       .  S
C170        C171   1.414       .  A
C170        O175   1.373       .  S
C171        C172   1.406       .  A
C172        C173   1.410       .  A
C172        H176   1.083       .  S
C173        O177   1.371       .  S
O175        H179   0.991       .  S
O177        H178   0.991       .  S
C180        C181   1.403       .  A
C180        C185   1.415       .  A
C181        C182   1.390       .  A
C181        H186   1.083       .  S
C182        C183   1.412       .  A
C182        O187   1.372       .  S
C183        C184   1.406       .  A
C184        C185   1.408       .  A
C184        H188   1.083       .  S
C185        O189   1.371       .  S
O187        H191   0.992       .  S
O189        H417   0.992       .  S
H190        O416   0.992       .  S
C192        C193   1.406       .  A
C192        C197   1.413       .  A
C193        C194   1.394       .  A
C193        H198   1.084       .  S
C194        C195   1.406       .  A
C194        O199   1.373       .  S
C195        C196   1.401       .  A
C196        C197   1.404       .  A
C196        H200   1.084       .  S
C197        O201   1.370       .  S
O199        H203   0.992       .  S
O201        H202   0.992       .  S
C204        C205   1.400       .  A
C204        C209   1.416       .  A
C205        C206   1.387       .  A
C205        H210   1.083       .  S
C206        C207   1.414       .  A
C206        O211   1.372       .  S
C207        C208   1.406       .  A
C208        C209   1.409       .  A
C208        H212   1.083       .  S
C209        O213   1.371       .  S
O211        H215   0.992       .  S
O213        H214   0.993       .  S
C216        C217   1.408       .  A
C216        C221   1.413       .  A
C217        C218   1.406       .  A
C217        H222   1.083       .  S
C218        C219   1.406       .  A
C218        O223   1.371       .  S
C219        C220   1.400       .  A
C220        C221   1.395       .  A
C220        H224   1.084       .  S
C221        O225   1.372       .  S
O223        H227   0.992       .  S
O225        H226   0.993       .  S
C228        N229   1.358       .  A
C228        N233   1.362       .  A
C228        C446   1.482       .  S
N229        C230   1.358       .  A
C230        N231   1.352       .  A
C230        C431   1.484       .  S
N231        C232   1.358       .  A
C232        N233   1.365       .  A
C232        C238   1.468       .  S
C234        N235   1.356       .  A
C234        C422   1.468       .  S
N235        C236   1.358       .  A
C236        C407   1.486       .  S
N237        C238   1.363       .  A
C238        N239   1.362       .  A
C240        N241   1.360       .  A
C240        N245   1.356       .  A
C240        C386   1.475       .  S
N241        C242   1.363       .  A
C242        N243   1.363       .  A
C242        C250   1.473       .  S
N243        C244   1.358       .  A
C244        N245   1.358       .  A
C244        C395   1.492       .  S
C246        N247   1.354       .  A
C246        C359   1.477       .  S
N247        C248   1.356       .  A
C248        C371   1.483       .  S
N249        C250   1.361       .  A
C250        N251   1.365       .  A
C252        N253   1.358       .  A
C252        N257   1.355       .  A
C252        C350   1.470       .  S
N253        C254   1.362       .  A
C254        N255   1.359       .  A
C254        C260   1.466       .  S
N255        C256   1.355       .  A
C256        N257   1.356       .  A
C256        C335   1.481       .  S
C258        N263   1.356       .  A
C258        C323   1.476       .  S
N259        C260   1.360       .  A
C260        N261   1.362       .  A
C262        N263   1.358       .  A
C262        C311   1.491       .  S
O264       Mn290   2.094       .  S
O264        C745   1.272   1_545  A
C265        C419   1.481       .  S
C265        O298   1.269       .  A
C265        O295   1.272       .  A
O266       Mn273   2.176       .  S
O266       Mn284   2.112       .  S
O266       Mn288   2.179       .  S
O266       Mn744   2.121       .  S
O267       Mn301   2.096       .  S
O267        C277   1.273       .  A
O268       Mn284   2.100       .  S
O268        C291   1.272       .  A
O269       Mn288   2.131       .  S
O269        C296   1.255       .  A
O270      Mn1209   1.954       .  S
O270       Mn290   1.956       .  S
O270        C286   1.215       .  S
C271        C398   1.493       .  S
C271        O274   1.257       .  A
C271        O297   1.212       .  S
O272      Mn1200   2.102       .  S
O272       Mn273   2.179       .  S
O272       Mn306   2.118       .  S
O272       Mn288   2.174       .  S
Mn273      O1210   2.139       .  S
Mn273       O278   2.127       .  S
Mn273       O759   2.117       .  S
Mn273      O1641   2.188       .  S
O274      Mn1196   2.144   1_455  S
O275       Mn282   2.102       .  S
O275        C277   1.273       .  A
C276        C374   1.481       .  S
C276        O302   1.254       .  A
C276        O289   1.214       .  S
C277        C443   1.486       .  S
O278        C303   1.256       .  A
O279      Mn1635   2.176   1_445  S
O279       Mn282   2.114       .  S
O279       Mn301   2.116       .  S
O279      Mn1650   2.172   1_445  S
O280       Mn284   1.951       .  S
O280       Mn306   1.950       .  S
O280        C303   1.214       .  S
C281        C347   1.484       .  S
C281       O1215   1.268       .  A
C281        O283   1.274       .  A
Mn282       O295   2.095       .  S
Mn282       O751   1.952   1_545  S
Mn282       O743   1.951   1_545  S
O283       Mn306   2.104       .  S
Mn284       O300   2.096       .  S
Mn284       O294   1.948       .  S
O285       Mn290   2.105       .  S
O285        C741   1.274   1_545  A
C286        C338   1.477       .  S
C286        O304   1.254       .  A
C287        C362   1.482       .  S
C287        O739   1.273       .  A
C287        O300   1.272       .  A
Mn288      O1182   2.134       .  S
Mn288       O758   2.118       .  S
Mn288      O1641   2.183       .  S
O289       Mn736   1.949       .  S
O289       Mn292   1.952       .  S
Mn290       O720   2.116   1_545  S
Mn290       O308   1.946       .  S
C291        C383   1.484       .  S
C291        O718   1.270       .  A
Mn292       O299   2.104       .  S
Mn292       O307   2.113       .  S
Mn292      O1180   2.110   1_455  S
Mn292       O297   1.957       .  S
C293        C326   1.483       .  S
C293       O1207   1.273       .  A
C293        O309   1.271       .  A
O294       Mn306   1.948       .  S
O294        C296   1.211       .  S
C296        C434   1.481       .  S
O297       Mn736   1.949       .  S
O298       Mn301   2.078       .  S
O299       C1201   1.273   1_455  A
Mn301      O1178   1.954   1_455  S
Mn301      O1216   1.954   1_455  S
O302      Mn1181   2.126   1_455  S
C303        C410   1.482       .  S
O304       Mn742   2.116   1_545  S
O305       Mn727   2.144   1_545  S
O305        C310   1.257       .  A
Mn306       O309   2.088       .  S
O307       C1189   1.275   1_455  A
O308      Mn1209   1.951       .  S
O308        C310   1.212       .  S
C310        C314   1.490       .  S
C311        C312   1.412       .  A
C311        C316   1.411       .  A
C312        C313   1.410       .  A
C313        C314   1.408       .  A
C313        O318   1.371       .  S
C314        C315   1.408       .  A
C315        C316   1.393       .  A
C315       H1227   1.084       .  S
C316       O1228   1.373       .  S
O318        H322   0.991       .  S
H319       C1223   1.084   1_455  S
O320       C1224   1.373   1_455  S
O320        H321   0.991   1_455  S
C323        C324   1.403       .  A
C323        C328   1.407       .  A
C324        C325   1.404       .  A
C325        C326   1.412       .  A
C325        O330   1.371       .  S
C326        C327   1.405       .  A
C327        C328   1.399       .  A
C327        H331   1.084       .  S
C328        O332   1.372       .  S
O330        H334   0.992       .  S
O332        H333   0.992       .  S
C335        C336   1.408       .  A
C335       C1248   1.409       .  A
C336        C337   1.404       .  A
C336        H341   1.083       .  S
C337        C338   1.407       .  A
C337        O342   1.371       .  S
C338       C1247   1.405       .  A
C339       C1246   1.405   1_455  A
C339        C340   1.396       .  A
C339        H343   1.084       .  S
C340       C1243   1.409   1_455  A
C340        O344   1.372       .  S
O342        H346   0.992       .  S
O344        H345   0.991       .  S
C347        C348   1.408       .  A
C347        C352   1.416       .  A
C348        C349   1.404       .  A
C348        H353   1.083       .  S
C349        C350   1.406       .  A
C349        O354   1.371       .  S
C350        C351   1.398       .  A
C351        C352   1.395       .  A
C351        H355   1.084       .  S
C352        O356   1.372       .  S
O354        H358   0.992       .  S
O356        H357   0.993       .  S
C359        C360   1.403       .  A
C359        C364   1.409       .  A
C360        C361   1.405       .  A
C360        H365   1.084       .  S
C361        C362   1.412       .  A
C361        O366   1.370       .  S
C362        C363   1.403       .  A
C363        C364   1.399       .  A
C363        H367   1.084       .  S
O366        H370   0.993       .  S
O368        H369   0.991       .  S
C371        C372   1.410       .  A
C371        C376   1.409       .  A
C372        C373   1.407       .  A
C373        C374   1.409       .  A
C373        O378   1.371       .  S
C374        C375   1.406       .  A
C375        C376   1.390       .  A
C375        H833   1.084       .  S
C376        O834   1.372       .  S
O378        H382   0.991       .  S
H379        C829   1.084       .  S
O380        C830   1.372       .  S
O380        H381   0.992       .  S
C383        C384   1.408       .  A
C383        C388   1.412       .  A
C384        C385   1.405       .  A
C384        H389   1.084       .  S
C385        C386   1.408       .  A
C385        O390   1.371       .  S
C386        C387   1.400       .  A
C387        C388   1.398       .  A
C387        H391   1.084       .  S
C388        O392   1.372       .  S
O390        H394   0.992       .  S
O392        H393   0.993       .  S
C395        C396   1.402       .  A
C395        C400   1.415       .  A
C396        C397   1.392       .  A
C396        H401   1.083       .  S
C397        C398   1.416       .  A
C397        O402   1.373       .  S
C398        C399   1.407       .  A
C399        C400   1.412       .  A
C399        H403   1.083       .  S
C400        O404   1.371       .  S
O402        H406   0.991       .  S
O404        H405   0.991       .  S
C407        C408   1.402       .  A
C407        C412   1.415       .  A
C408        C409   1.393       .  A
C408        H413   1.084       .  S
C409        C410   1.413       .  A
C409        O414   1.372       .  S
C410        C411   1.404       .  A
C411        C412   1.407       .  A
C411        H415   1.083       .  S
C412        O416   1.371   1_556  S
O414        H418   0.992       .  S
C419        C420   1.406       .  A
C419        C424   1.412       .  A
C420        C421   1.396       .  A
C420        H425   1.084       .  S
C421        C422   1.404       .  A
C421        O426   1.372       .  S
C422        C423   1.401       .  A
C423        C424   1.402       .  A
C423        H427   1.084       .  S
C424        O428   1.370       .  S
O426        H430   0.992       .  S
O428        H429   0.992       .  S
C431        C432   1.400       .  A
C431        C436   1.416       .  A
C432        C433   1.392       .  A
C432        H437   1.084       .  S
C433        C434   1.413       .  A
C433        O438   1.372       .  S
C434        C435   1.403       .  A
C435        C436   1.407       .  A
C435        H439   1.083       .  S
C436        O440   1.371       .  S
O438        H442   0.993       .  S
O440        H441   0.992       .  S
C443        C444   1.409       .  A
C443        C448   1.410       .  A
C444        C445   1.408       .  A
C444        H449   1.083       .  S
C445        C446   1.409       .  A
C445        O450   1.371       .  S
C446        C447   1.403       .  A
C447        C448   1.398       .  A
C447        H451   1.084       .  S
C448        O452   1.372       .  S
O450        H454   0.992       .  S
O452        H453   0.991       .  S
C455        N456   1.354       .  A
C455        N460   1.359       .  A
C455        C673   1.471       .  S
N456        C457   1.355       .  A
C457        N458   1.357       .  A
C457        C658   1.482       .  S
N458        C459   1.361       .  A
C459        N460   1.363       .  A
C459        C465   1.469       .  S
C461        N462   1.358       .  A
C461        N693   1.359       .  A
C461        C649   1.472       .  S
N462        C463   1.357       .  A
C463        N691   1.353       .  A
C463        C634   1.484       .  S
N464        C690   1.358   1_554  A
N464        C465   1.362       .  A
C465        N466   1.363       .  A
N466        C688   1.358   1_554  A
C467        N468   1.360       .  A
C467        N472   1.357       .  A
C467        C613   1.479       .  S
N468        C469   1.363       .  A
C469        N470   1.361       .  A
C469        C477   1.472       .  S
N470        C471   1.358       .  A
C471        N472   1.360       .  A
C471        C622   1.492       .  S
C473        N474   1.356       .  A
C473        N705   1.361       .  A
C473        C586   1.481       .  S
N474        C475   1.358       .  A
C475        N703   1.355       .  A
C475        C598   1.481       .  S
N476        C702   1.359   1_554  A
N476        C477   1.363       .  A
C477        N478   1.362       .  A
N478        C700   1.358   1_554  A
C479        N480   1.358       .  A
C479        N484   1.358       .  A
C479        C577   1.476       .  S
N480        C481   1.361       .  A
C481        N482   1.362       .  A
C481        C487   1.470       .  S
N482        C483   1.358       .  A
C483        N484   1.360       .  A
C483        C562   1.492       .  S
C485        N713   1.360       .  A
C485        N490   1.354       .  A
C485        C550   1.477       .  S
N486        C712   1.360   1_554  A
N486        C487   1.364       .  A
C487        N488   1.361       .  A
N488        C716   1.357   1_554  A
C489        N715   1.357       .  A
C489        N490   1.354       .  A
C489        C538   1.482       .  S
O491       Mn517   2.093       .  S
C492        C646   1.484       .  S
C492        O525   1.272       .  A
C492        O522   1.273       .  A
O493       Mn500   2.174       .  S
O493       Mn511   2.113       .  S
O493       Mn515   2.183       .  S
O494       Mn528   2.081       .  S
O494        C504   1.269       .  A
O495       Mn511   2.108       .  S
O495        C518   1.274       .  A
O496       Mn515   2.124       .  S
O496        C523   1.256       .  A
O497      Mn1436   1.961       .  S
O497       Mn517   1.956       .  S
O497        C513   1.217       .  S
C498        C625   1.491       .  S
C498        O501   1.257       .  A
C498        O524   1.213       .  S
O499      Mn1427   2.109       .  S
O499       Mn500   2.179       .  S
O499       Mn533   2.118       .  S
O499       Mn515   2.176       .  S
Mn500      O1437   2.118       .  S
Mn500       O505   2.124       .  S
Mn500       O960   2.179   1_565  S
O501      Mn1423   2.138   1_455  S
O502       Mn509   2.098       .  S
O502        C504   1.271       .  A
C503        C601   1.479       .  S
C503        O529   1.253       .  A
C503        O516   1.212       .  S
C504        C670   1.482       .  S
O505        C530   1.254       .  A
O506       Mn954   2.170   1_455  S
O506       Mn509   2.119       .  S
O506       Mn528   2.110       .  S
O506       Mn969   2.180   1_455  S
O507       Mn511   1.957       .  S
O507       Mn533   1.959       .  S
O507        C530   1.213       .  S
C508        C574   1.489       .  S
C508       O1442   1.270       .  A
C508        O510   1.274       .  A
Mn509       O522   2.098       .  S
O510       Mn533   2.105       .  S
Mn511       O527   2.111       .  S
Mn511       O521   1.957       .  S
O512       Mn517   2.097       .  S
C513        C565   1.487       .  S
C513        O531   1.257       .  A
C514        C589   1.489       .  S
C514        O527   1.274       .  A
Mn515      O1409   2.153       .  S
Mn515       O960   2.186   1_565  S
O516       Mn519   1.943       .  S
Mn517       O535   1.952       .  S
C518        C610   1.490       .  S
Mn519       O526   2.100       .  S
Mn519       O534   2.080       .  S
Mn519      O1407   2.107   1_455  S
Mn519       O524   1.954       .  S
C520        C553   1.477       .  S
C520       O1434   1.267       .  A
C520        O536   1.274       .  A
O521       Mn533   1.953       .  S
O521        C523   1.214       .  S
C523        C661   1.480       .  S
O525       Mn528   2.085       .  S
O526       C1428   1.273   1_455  A
Mn528      O1405   1.951   1_455  S
Mn528      O1443   1.953   1_455  S
O529      Mn1408   2.126   1_455  S
C530        C637   1.481       .  S
O532        C537   1.252       .  A
Mn533       O536   2.109       .  S
O534       C1416   1.270   1_455  A
O535      Mn1436   1.947       .  S
O535        C537   1.216       .  S
C537        C541   1.477       .  S
C538        C539   1.409       .  A
C538        C543   1.410       .  A
C539        C540   1.407       .  A
C539        H771   1.083       .  S
C540        C541   1.408       .  A
C540        O545   1.371       .  S
C541        C542   1.402       .  A
C542        C543   1.391       .  A
C542       H1454   1.084       .  S
C543       O1455   1.373       .  S
H544        C766   1.083   1_554  S
O545        H549   0.991       .  S
H546       C1450   1.084       .  S
O547       C1451   1.373   1_455  S
O547        H548   0.991   1_455  S
C550        C551   1.403       .  A
C550        C555   1.409       .  A
C551        C552   1.394       .  A
C551        H783   1.084       .  S
C552        C553   1.411       .  A
C552        O557   1.373       .  S
C553        C554   1.405       .  A
C554        C555   1.405       .  A
C554        H558   1.082       .  S
C555        O559   1.371       .  S
H556        C778   1.084       .  S
O557        H561   0.992       .  S
O559        H560   0.992       .  S
C562        C563   1.412       .  A
C562       C1475   1.410       .  A
C563        C564   1.410       .  A
C563        H568   1.083       .  S
C564        C565   1.409       .  A
C564        O569   1.371       .  S
C565       C1474   1.405       .  A
C566       C1473   1.404   1_455  A
C566        C567   1.394       .  A
C566        H570   1.084       .  S
C567       C1470   1.410   1_455  A
C567        O571   1.373       .  S
O569        H573   0.991       .  S
O571        H572   0.991       .  S
C574        C575   1.406       .  A
C574        C579   1.416       .  A
C575        C576   1.400       .  A
C575        H580   1.083       .  S
C576        C577   1.405       .  A
C576        O581   1.372       .  S
C577        C578   1.402       .  A
C578        C579   1.405       .  A
C578        H582   1.084       .  S
C579        O583   1.372       .  S
O581        H585   0.991       .  S
O583        H584   0.992       .  S
C586        C587   1.403       .  A
C586        C591   1.408   1_565  A
C587        C588   1.405       .  A
C587        H592   1.084       .  S
C588        C589   1.412       .  A
C588        O593   1.369       .  S
C589        C590   1.406   1_565  A
C590        C591   1.403       .  A
C590        H594   1.084       .  S
C591        O822   1.372       .  S
O593        H597   0.993       .  S
O595        C818   1.372       .  S
O595        H596   0.991       .  S
C598        C599   1.410       .  A
C598        C603   1.407       .  A
C599        C600   1.406       .  A
C599        H831   1.083       .  S
C600        C601   1.408       .  A
C600        O605   1.371       .  S
C601        C602   1.406       .  A
C602        C603   1.389       .  A
H604        C826   1.083   1_554  S
O605        H609   0.992       .  S
O607        H608   0.992       .  S
C610        C611   1.408       .  A
C610        C615   1.414   1_565  A
C611        C612   1.406       .  A
C611        H616   1.084       .  S
C612        C613   1.408       .  A
C612        O617   1.371       .  S
C613        C614   1.401   1_565  A
C614        C615   1.401       .  A
C614        H618   1.084       .  S
C615        O619   1.371       .  S
O617        H621   0.992       .  S
O619        H620   0.993       .  S
C622        C623   1.402       .  A
C622        C627   1.416       .  A
C623        C624   1.393       .  A
C623        H628   1.083       .  S
C624        C625   1.417       .  A
C624        O629   1.373       .  S
C625        C626   1.406       .  A
C626        C627   1.410       .  A
C626        H630   1.083       .  S
C627        O631   1.371       .  S
O629        H633   0.992       .  S
O631        H632   0.991       .  S
C634        C635   1.401       .  A
C634        C639   1.414       .  A
C635        C636   1.394       .  A
C635        H640   1.084       .  S
C636        C637   1.413       .  A
C636        O641   1.372       .  S
C637        C638   1.403       .  A
C638        C639   1.405       .  A
C638        H642   1.083       .  S
C639        O643   1.371       .  S
O641        H645   0.992       .  S
O643        H871   0.992       .  S
H644        O870   0.992       .  S
C646        C647   1.406       .  A
C646        C651   1.413       .  A
C647        C648   1.395       .  A
C647        H652   1.084       .  S
C648        C649   1.404       .  A
C648        O653   1.372       .  S
C649        C650   1.403       .  A
C650        C651   1.405       .  A
C650        H654   1.084       .  S
C651        O655   1.371       .  S
O653        H657   0.992       .  S
O655        H656   0.992       .  S
C658        C659   1.402       .  A
C658        C663   1.413       .  A
C659        C660   1.392       .  A
C659        H664   1.084       .  S
C660        C661   1.412       .  A
C660        O665   1.372       .  S
C661        C662   1.405       .  A
C662        C663   1.406       .  A
C662        H666   1.083       .  S
C663        O667   1.371       .  S
O665        H669   0.992       .  S
O667        H668   0.992       .  S
C670        C671   1.409       .  A
C670        C675   1.411       .  A
C671        C672   1.405       .  A
C671        H676   1.083       .  S
C672        C673   1.406       .  A
C672        O677   1.371       .  S
C673        C674   1.400       .  A
C674        C675   1.395       .  A
C674        H678   1.084       .  S
C675        O679   1.372       .  S
O677        H681   0.992       .  S
O679        H680   0.992       .  S
C682        N683   1.356       .  A
C682        N687   1.360       .  A
C682        C900   1.474       .  S
N683        C684   1.356       .  A
C684        N685   1.351       .  A
C684        C885   1.479       .  S
N685        C686   1.358       .  A
C686        N687   1.363       .  A
C686        C692   1.463       .  S
C688        N689   1.354       .  A
C688        C876   1.473       .  S
N689        C690   1.357       .  A
C690        C861   1.493       .  S
N691        C692   1.359       .  A
C692        N693   1.360       .  A
C694        N695   1.356       .  A
C694        N699   1.356       .  A
C694        C840   1.472       .  S
N695        C696   1.360       .  A
C696        N697   1.364       .  A
C696        C704   1.468       .  S
N697        C698   1.359       .  A
C698        N699   1.360       .  A
C698        C849   1.492       .  S
C700        N701   1.357       .  A
C700        C813   1.475       .  S
N701        C702   1.360       .  A
C702        C825   1.494       .  S
N703        C704   1.358       .  A
C704        N705   1.365       .  A
C706        N707   1.360       .  A
C706        N711   1.356       .  A
C706        C804   1.472       .  S
N707        C708   1.363       .  A
C708        N709   1.360       .  A
C708        C714   1.469       .  S
N709        C710   1.356       .  A
C710        N711   1.356       .  A
C710        C789   1.483       .  S
C712        N717   1.353       .  A
C712        C777   1.471       .  S
N713        C714   1.363       .  A
C714        N715   1.363       .  A
C716        N717   1.353       .  A
C716        C765   1.479       .  S
O718       Mn744   2.086       .  S
C719        C873   1.492       .  S
C719        O752   1.272       .  A
C719        O749   1.273       .  A
O720       Mn727   2.179       .  S
O720       Mn738   2.110       .  S
O720       Mn742   2.183       .  S
O721       Mn755   2.083       .  S
O721        C731   1.270       .  A
O722       Mn738   2.100       .  S
O722        C745   1.272       .  A
O723       Mn742   2.132       .  S
O723        C750   1.257       .  A
O724      Mn1663   1.954       .  S
O724       Mn744   1.958       .  S
O724        C740   1.216       .  S
C725        C852   1.489       .  S
C725        O728   1.256       .  A
C725        O751   1.214       .  S
O726      Mn1654   2.107       .  S
O726       Mn727   2.189       .  S
O726       Mn760   2.119       .  S
O726       Mn742   2.175       .  S
Mn727      O1664   2.120       .  S
Mn727       O732   2.132       .  S
Mn727      O1187   2.177   1_565  S
O728      Mn1650   2.133   1_455  S
O729       Mn736   2.101       .  S
O729        C731   1.272       .  A
C730        C828   1.490       .  S
C730        O756   1.256       .  A
C730        O743   1.212       .  S
C731        C897   1.482       .  S
O732        C757   1.255       .  A
O733      Mn1181   2.175   1_455  S
O733       Mn736   2.120       .  S
O733       Mn755   2.110       .  S
O733      Mn1196   2.175   1_455  S
O734       Mn738   1.967       .  S
O734       Mn760   1.963       .  S
O734        C757   1.213       .  S
C735        C801   1.488       .  S
C735       O1669   1.270       .  A
C735        O737   1.273       .  A
Mn736       O749   2.104       .  S
O737       Mn760   2.104       .  S
Mn738       O754   2.085       .  S
Mn738       O748   2.015       .  S
O739       Mn744   2.100       .  S
C740        C792   1.479       .  S
C740        O758   1.255       .  A
C741        C816   1.487       .  S
C741        O754   1.269       .  A
Mn742      O1636   2.138       .  S
Mn742      O1187   2.183   1_565  S
O743       Mn746   1.943       .  S
Mn744       O762   1.951       .  S
C745        C837   1.486       .  S
Mn746       O753   2.109       .  S
Mn746       O761   2.088       .  S
Mn746      O1634   2.106   1_455  S
Mn746       O751   1.958       .  S
C747        C780   1.477       .  S
C747       O1661   1.267       .  A
C747        O763   1.271       .  A
O748       Mn760   2.018       .  S
O748        C750   1.236       .  A
C750        C888   1.476       .  S
O752       Mn755   2.090       .  S
O753       C1655   1.274   1_455  A
Mn755      O1632   1.955   1_455  S
Mn755      O1670   1.953   1_455  S
O756      Mn1635   2.145   1_455  S
C757        C864   1.489       .  S
O759        C764   1.254       .  A
Mn760       O763   2.096       .  S
O761       C1643   1.271   1_455  A
O762      Mn1663   1.951       .  S
O762        C764   1.215       .  S
C764        C768   1.477       .  S
C765        C766   1.407       .  A
C765        C770   1.409       .  A
C766        C767   1.405       .  A
C767        C768   1.407       .  A
C767        O772   1.371       .  S
C768        C769   1.404       .  A
C769        C770   1.393       .  A
C769       H1681   1.084       .  S
C770       O1682   1.373       .  S
O772        H776   0.991       .  S
H773       C1677   1.084       .  S
O774       C1678   1.373       .  S
O774        H775   0.991   1_455  S
C777        C778   1.400       .  A
C777        C782   1.408       .  A
C778        C779   1.392       .  A
C779        C780   1.411       .  A
C779        O784   1.373       .  S
C780        C781   1.407       .  A
C781        C782   1.405       .  A
C781        H785   1.084       .  S
C782        O786   1.371       .  S
O784        H788   0.991       .  S
O786        H787   0.992       .  S
C789        C790   1.408       .  A
C789       C1702   1.410       .  A
C790        C791   1.405       .  A
C790        H795   1.083       .  S
C791        C792   1.408       .  A
C791        O796   1.371       .  S
C792       C1701   1.404       .  A
C793       C1700   1.402   1_455  A
C793        C794   1.392       .  A
C793        H797   1.084       .  S
C794       C1697   1.410   1_455  A
C794        O798   1.372       .  S
O796        H800   0.992       .  S
O798        H799   0.992       .  S
C801        C802   1.410       .  A
C801        C806   1.414       .  A
C802        C803   1.406       .  A
C802        H807   1.083       .  S
C803        C804   1.407       .  A
C803        O808   1.372       .  S
C804        C805   1.399       .  A
C805        C806   1.396       .  A
C805        H809   1.084       .  S
C806        O810   1.372       .  S
O808        H812   0.992       .  S
O810        H811   0.993       .  S
C813        C814   1.402       .  A
C813        C818   1.406   1_565  A
C814        C815   1.404       .  A
C814        H819   1.084       .  S
C815        C816   1.415       .  A
C815        O820   1.371       .  S
C816        C817   1.405   1_565  A
C817        C818   1.400       .  A
C817        H821   1.083       .  S
O820        H824   0.993       .  S
O822        H823   0.991       .  S
C825        C826   1.412       .  A
C825        C830   1.411       .  A
C826        C827   1.411       .  A
C827        C828   1.409       .  A
C827        O832   1.371       .  S
C828        C829   1.407       .  A
C829        C830   1.393       .  A
O832        H836   0.991       .  S
O834        H835   0.992       .  S
C837        C838   1.409       .  A
C837        C842   1.412   1_565  A
C838        C839   1.405       .  A
C838        H843   1.084       .  S
C839        C840   1.406       .  A
C839        O844   1.372       .  S
C840        C841   1.399   1_565  A
C841        C842   1.399       .  A
C841        H845   1.084       .  S
C842        O846   1.371       .  S
O844        H848   0.992       .  S
O846        H847   0.992       .  S
C849        C850   1.402       .  A
C849        C854   1.416       .  A
C850        C851   1.392       .  A
C850        H855   1.083       .  S
C851        C852   1.414       .  A
C851        O856   1.372       .  S
C852        C853   1.407       .  A
C853        C854   1.412       .  A
C853        H857   1.083       .  S
C854        O858   1.371       .  S
O856        H860   0.993       .  S
O858        H859   0.991       .  S
C861        C862   1.403       .  A
C861        C866   1.416       .  A
C862        C863   1.391       .  A
C862        H867   1.083       .  S
C863        C864   1.415       .  A
C863        O868   1.373       .  S
C864        C865   1.406       .  A
C865        C866   1.409       .  A
C865        H869   1.083       .  S
C866        O870   1.371   1_556  S
O868        H872   0.992       .  S
C873        C874   1.408       .  A
C873        C878   1.416       .  A
C874        C875   1.398       .  A
C874        H879   1.083       .  S
C875        C876   1.404       .  A
C875        O880   1.372       .  S
C876        C877   1.402       .  A
C877        C878   1.406       .  A
C877        H881   1.084       .  S
C878        O882   1.371       .  S
O880        H884   0.992       .  S
O882        H883   0.992       .  S
C885        C886   1.398       .  A
C885        C890   1.415       .  A
C886        C887   1.387       .  A
C886        H891   1.084       .  S
C887        C888   1.417       .  A
C887        O892   1.374       .  S
C888        C889   1.401       .  A
C889        C890   1.406       .  A
C889        H893   1.083       .  S
C890        O894   1.370       .  S
O892        H896   0.992       .  S
O894        H895   0.991       .  S
C897        C898   1.409       .  A
C897        C902   1.411       .  A
C898        C899   1.407       .  A
C898        H903   1.083       .  S
C899        C900   1.408       .  A
C899        O904   1.372       .  S
C900        C901   1.400       .  A
C901        C902   1.394       .  A
C901        H905   1.084       .  S
C902        O906   1.372       .  S
O904        H908   0.992       .  S
O906        H907   0.993       .  S
C909        N910   1.355       .  A
C909        N914   1.360       .  A
C909       C1127   1.476       .  S
N910        C911   1.354       .  A
C911        N912   1.354       .  A
C911       C1112   1.481       .  S
N912        C913   1.360       .  A
C913        N914   1.363       .  A
C913        C919   1.465       .  S
C915        N916   1.356       .  A
C915       N1147   1.357       .  A
C915       C1103   1.468       .  S
N916        C917   1.359       .  A
C917       N1145   1.358       .  A
C917       C1088   1.488       .  S
N918       C1144   1.353   1_554  A
N918        C919   1.358       .  A
C919        N920   1.362       .  A
N920       C1142   1.360   1_554  A
C921        N922   1.358       .  A
C921        N926   1.357       .  A
C921       C1067   1.475       .  S
N922        C923   1.361       .  A
C923        N924   1.362       .  A
C923        C931   1.470       .  S
N924        C925   1.358       .  A
C925        N926   1.360       .  A
C925       C1076   1.490       .  S
C927        N928   1.354       .  A
C927       N1159   1.359       .  A
C927       C1040   1.480       .  S
N928        C929   1.357       .  A
C929       N1157   1.357       .  A
C929       C1052   1.490       .  S
N930       C1156   1.355   1_554  A
N930        C931   1.360       .  A
C931        N932   1.364       .  A
N932       C1154   1.361   1_554  A
C933        N934   1.358       .  A
C933        N938   1.354       .  A
C933       C1031   1.474       .  S
N934        C935   1.362       .  A
C935        N936   1.359       .  A
C935        C941   1.466       .  S
N936        C937   1.356       .  A
C937        N938   1.357       .  A
C937       C1016   1.485       .  S
C939       N1167   1.361       .  A
C939        N944   1.356       .  A
C939       C1004   1.477       .  S
N940       C1166   1.357   1_554  A
N940        C941   1.361       .  A
C941        N942   1.362       .  A
N942       C1170   1.358   1_554  A
C943       N1169   1.356       .  A
C943        N944   1.353       .  A
C943        C992   1.482       .  S
O945       Mn971   2.090       .  S
O945       C1426   1.270   1_545  A
C946       C1100   1.490       .  S
C946        O979   1.276       .  A
C946        O976   1.266       .  A
O947       Mn954   2.177       .  S
O947       Mn965   2.111       .  S
O947       Mn969   2.179       .  S
O947      Mn1425   2.123       .  S
O948       Mn982   2.081       .  S
O948        C958   1.269       .  A
O949       Mn965   2.109       .  S
O949        C972   1.274       .  A
O950       Mn969   2.117       .  S
O950        C977   1.255       .  A
O951       Mn971   2.008       .  S
O951        C967   1.238       .  A
C952       C1079   1.486       .  S
C952        O955   1.255       .  A
C952        O978   1.213       .  S
O953       Mn954   2.177       .  S
O953       Mn987   2.121       .  S
O953       Mn969   2.168       .  S
Mn954       O959   2.124       .  S
Mn954      O1440   2.122       .  S
O956       Mn963   2.101       .  S
O956        C958   1.271       .  A
C957       C1055   1.483       .  S
C957        O983   1.256       .  A
C957        O970   1.236       .  A
C958       C1124   1.481       .  S
O959        C984   1.253       .  A
O960       Mn963   2.113       .  S
O960       Mn982   2.116       .  S
O961       Mn965   1.956       .  S
O961       Mn987   1.950       .  S
O961        C984   1.214       .  S
C962       C1028   1.483       .  S
C962        O964   1.274       .  A
Mn963       O976   2.067       .  S
Mn963      O1432   1.993   1_545  S
Mn963      O1424   1.971   1_545  S
O964       Mn987   2.102       .  S
Mn965       O981   2.106       .  S
Mn965       O975   1.962       .  S
O966       Mn971   2.080       .  S
O966       C1422   1.269   1_545  A
C967       C1019   1.479       .  S
C967        O985   1.256       .  A
C968       C1043   1.484       .  S
C968       O1420   1.271       .  A
C968        O981   1.274       .  A
Mn969      O1439   2.115       .  S
O970      Mn1417   2.005       .  S
O970       Mn973   1.999       .  S
Mn971      O1401   2.119   1_545  S
Mn971       O989   1.970       .  S
C972       C1064   1.495       .  S
C972       O1399   1.272       .  A
Mn973       O980   2.080       .  S
Mn973       O988   2.063       .  S
Mn973       O978   1.967       .  S
C974       C1007   1.480       .  S
C974        O990   1.273       .  A
O975       Mn987   1.960       .  S
O975        C977   1.216       .  S
C977       C1115   1.479       .  S
O978      Mn1417   1.959       .  S
O979       Mn982   2.113       .  S
C984       C1091   1.485       .  S
O985      Mn1423   2.131   1_545  S
O986      Mn1408   2.114   1_545  S
O986        C991   1.253       .  A
Mn987       O990   2.104       .  S
O989        C991   1.216       .  S
C991        C995   1.478       .  S
C992        C993   1.407       .  A
C992        C997   1.410   1_655  A
C993        C994   1.405       .  A
C993       H1225   1.083       .  S
C994        C995   1.408       .  A
C994        O999   1.371       .  S
C995        C996   1.404   1_655  A
C996        C997   1.395       .  A
H998       C1220   1.083   1_554  S
O999       H1003   0.991       .  S
O1001      H1002   0.992       .  S
C1004      C1005   1.402   1_655  A
C1004      C1009   1.409       .  A
C1005      C1006   1.393       .  A
C1005      H1237   1.084       .  S
C1006      C1007   1.410   1_455  A
C1006      O1011   1.372       .  S
C1007      C1008   1.407       .  A
C1008      C1009   1.407       .  A
C1008      H1012   1.081       .  S
C1009      O1013   1.372       .  S
H1010      C1232   1.084   1_455  S
O1011      H1015   0.992       .  S
O1013      H1014   0.992       .  S
C1016      C1017   1.413       .  A
C1017      C1018   1.407       .  A
C1017      H1022   1.083       .  S
C1018      C1019   1.405       .  A
C1018      O1023   1.371       .  S
C1020      C1021   1.391       .  A
C1020      H1024   1.084       .  S
C1021      O1025   1.373       .  S
O1023      H1027   0.992       .  S
O1025      H1026   0.992       .  S
C1028      C1029   1.405       .  A
C1028      C1033   1.411   1_655  A
C1029      C1030   1.401       .  A
C1029      H1034   1.084       .  S
C1030      C1031   1.407       .  A
C1030      O1035   1.372       .  S
C1031      C1032   1.401   1_655  A
C1032      C1033   1.403       .  A
C1032      H1036   1.084       .  S
C1033      O1037   1.369       .  S
O1035      H1039   0.992       .  S
O1037      H1038   0.993       .  S
C1040      C1041   1.404       .  A
C1040      C1045   1.409       .  A
C1041      C1042   1.405       .  A
C1041      H1046   1.083       .  S
C1042      C1043   1.411       .  A
C1042      O1047   1.371       .  S
C1043      C1044   1.404       .  A
C1044      C1045   1.401       .  A
C1044      H1048   1.084       .  S
C1045      O1276   1.372       .  S
O1047      H1051   0.993       .  S
O1049      C1272   1.372       .  S
O1049      H1050   0.991       .  S
C1052      C1053   1.415       .  A
C1052      C1057   1.410       .  A
C1053      C1054   1.410       .  A
C1053      H1285   1.083       .  S
C1054      C1055   1.406       .  A
C1054      O1059   1.371       .  S
C1055      C1056   1.408       .  A
C1056      C1057   1.384       .  A
C1056      H1514   1.084       .  S
C1057      O1515   1.372       .  S
H1058      C1280   1.083   1_554  S
O1059      H1063   0.992       .  S
H1060      C1510   1.084       .  S
O1061      C1511   1.372       .  S
O1061      H1062   0.992       .  S
C1064      C1065   1.410       .  A
C1064      C1069   1.417       .  A
C1065      C1066   1.404       .  A
C1065      H1070   1.083       .  S
C1066      C1067   1.405       .  A
C1066      O1071   1.371       .  S
C1067      C1068   1.400       .  A
C1068      C1069   1.402       .  A
C1068      H1072   1.084       .  S
C1069      O1073   1.371       .  S
O1071      H1075   0.992       .  S
O1073      H1074   0.992       .  S
C1076      C1077   1.401       .  A
C1076      C1081   1.416       .  A
C1077      C1078   1.395       .  A
C1077      H1082   1.084       .  S
C1078      C1079   1.414       .  A
C1078      O1083   1.372       .  S
C1079      C1080   1.404       .  A
C1080      C1081   1.409       .  A
C1080      H1084   1.083       .  S
C1081      O1085   1.371       .  S
O1083      H1087   0.991       .  S
O1085      H1086   0.991       .  S
C1088      C1089   1.402       .  A
C1088      C1093   1.415       .  A
C1089      C1090   1.394       .  A
C1089      H1094   1.083       .  S
C1090      C1091   1.412       .  A
C1090      O1095   1.373       .  S
C1091      C1092   1.406       .  A
C1092      C1093   1.409       .  A
C1092      H1096   1.083       .  S
C1093      O1097   1.371       .  S
O1095      H1099   0.992       .  S
O1097      H1325   0.992       .  S
H1098      O1324   0.992       .  S
C1100      C1101   1.407       .  A
C1100      C1105   1.421       .  A
C1101      C1102   1.401       .  A
C1101      H1106   1.083       .  S
C1102      C1103   1.405       .  A
C1102      O1107   1.371       .  S
C1103      C1104   1.396       .  A
C1104      C1105   1.400       .  A
C1104      H1108   1.084       .  S
C1105      O1109   1.372       .  S
O1107      H1111   0.992       .  S
O1109      H1110   0.992       .  S
C1112      C1113   1.401       .  A
C1112      C1117   1.414       .  A
C1113      C1114   1.391       .  A
C1113      H1118   1.084       .  S
C1114      C1115   1.411       .  A
C1114      O1119   1.373       .  S
C1115      C1116   1.405       .  A
C1116      C1117   1.406       .  A
C1116      H1120   1.083       .  S
C1117      O1121   1.371       .  S
O1119      H1123   0.992       .  S
O1121      H1122   0.991       .  S
C1124      C1125   1.408       .  A
C1124      C1129   1.410       .  A
C1125      C1126   1.407       .  A
C1125      H1130   1.083       .  S
C1126      C1127   1.408       .  A
C1126      O1131   1.371       .  S
C1127      C1128   1.402       .  A
C1128      C1129   1.395       .  A
C1128      H1132   1.084       .  S
C1129      O1133   1.372       .  S
O1131      H1135   0.992       .  S
O1133      H1134   0.993       .  S
C1136      N1137   1.356       .  A
C1136      N1141   1.360       .  A
C1136      C1354   1.475       .  S
N1137      C1138   1.357       .  A
C1138      N1139   1.355       .  A
C1138      C1339   1.483       .  S
N1139      C1140   1.359       .  A
C1140      N1141   1.364       .  A
C1140      C1146   1.468       .  S
C1142      N1143   1.356       .  A
C1142      C1330   1.472       .  S
N1143      C1144   1.357       .  A
C1144      C1315   1.480       .  S
N1145      C1146   1.362       .  A
C1146      N1147   1.360       .  A
C1148      N1149   1.358       .  A
C1148      N1153   1.356       .  A
C1148      C1294   1.477       .  S
N1149      C1150   1.361       .  A
C1150      N1151   1.362       .  A
C1150      C1158   1.469       .  S
N1151      C1152   1.358       .  A
C1152      N1153   1.360       .  A
C1152      C1303   1.492       .  S
C1154      N1155   1.356       .  A
C1154      C1267   1.482       .  S
N1155      C1156   1.358       .  A
C1156      C1279   1.486       .  S
N1157      C1158   1.361       .  A
C1158      N1159   1.364       .  A
C1160      N1161   1.361       .  A
C1160      N1165   1.357       .  A
C1160      C1258   1.478       .  S
N1161      C1162   1.364       .  A
C1162      N1163   1.361       .  A
C1162      C1168   1.471       .  S
N1163      C1164   1.356       .  A
C1164      N1165   1.357       .  A
C1164      C1243   1.484       .  S
C1166      N1171   1.355       .  A
C1166      C1231   1.473       .  S
N1167      C1168   1.364       .  A
C1168      N1169   1.362       .  A
C1170      N1171   1.357       .  A
C1170      C1219   1.483       .  S
O1172     Mn1198   2.088       .  S
O1172      C1653   1.270   1_545  A
C1173      C1327   1.486       .  S
C1173      O1206   1.274       .  A
C1173      O1203   1.270       .  A
O1174     Mn1181   2.180       .  S
O1174     Mn1192   2.112       .  S
O1174     Mn1196   2.190       .  S
O1174     Mn1652   2.128       .  S
O1175     Mn1209   2.093       .  S
O1175      C1185   1.272       .  A
O1176     Mn1192   2.089       .  S
O1176      C1199   1.270       .  A
O1177     Mn1196   2.120       .  S
O1177      C1204   1.255       .  A
O1178     Mn1198   1.965       .  S
O1178      C1194   1.219       .  S
C1179      C1306   1.488       .  S
C1179      O1182   1.256       .  A
C1179      O1205   1.214       .  S
O1180     Mn1181   2.183       .  S
O1180     Mn1214   2.120       .  S
O1180     Mn1196   2.173       .  S
Mn1181     O1186   2.123       .  S
Mn1181     O1667   2.123       .  S
O1183     Mn1190   2.097       .  S
O1183      C1185   1.272       .  A
C1184      C1282   1.480       .  S
C1184      O1210   1.255       .  A
C1184      O1197   1.235       .  A
C1185      C1351   1.488       .  S
O1186      C1211   1.255       .  A
O1187     Mn1190   2.118       .  S
O1187     Mn1209   2.107       .  S
O1188     Mn1192   2.017       .  S
O1188     Mn1214   2.016       .  S
O1188      C1211   1.237       .  A
C1189      C1255   1.484       .  S
C1189      O1191   1.270       .  A
Mn1190     O1203   2.089       .  S
Mn1190     O1659   1.940   1_545  S
Mn1190     O1651   1.958   1_545  S
O1191     Mn1214   2.084       .  S
Mn1192     O1208   2.105       .  S
Mn1192     O1202   1.970       .  S
O1193     Mn1198   2.117       .  S
O1193      C1649   1.275   1_545  A
C1194      C1246   1.482       .  S
C1194      O1212   1.255       .  A
C1195      C1270   1.486       .  S
C1195      O1647   1.273       .  A
C1195      O1208   1.273       .  A
Mn1196     O1666   2.111       .  S
O1197     Mn1644   2.004       .  S
O1197     Mn1200   2.004       .  S
Mn1198     O1628   2.124   1_545  S
Mn1198     O1216   1.948       .  S
C1199      C1291   1.484       .  S
C1199      O1626   1.272       .  A
Mn1200     O1207   2.101       .  S
Mn1200     O1215   2.072       .  S
Mn1200     O1205   1.975       .  S
C1201      C1234   1.483       .  S
C1201      O1217   1.270       .  A
O1202     Mn1214   1.967       .  S
O1202      C1204   1.214       .  S
C1204      C1342   1.480       .  S
O1205     Mn1644   1.961       .  S
O1206     Mn1209   2.099       .  S
C1211      C1318   1.475       .  S
O1212     Mn1650   2.116   1_545  S
O1213     Mn1635   2.128   1_545  S
O1213      C1218   1.255       .  A
Mn1214     O1217   2.088       .  S
O1216      C1218   1.216       .  S
C1218      C1222   1.484       .  S
C1219      C1220   1.409       .  A
C1219      C1224   1.408       .  A
C1220      C1221   1.409       .  A
C1221      C1222   1.410       .  A
C1221      O1226   1.371       .  S
C1222      C1223   1.405       .  A
C1223      C1224   1.393       .  A
O1226      H1230   0.991       .  S
O1228      H1229   0.991       .  S
C1231      C1232   1.402       .  A
C1231      C1236   1.406       .  A
C1232      C1233   1.403   1_655  A
C1233      C1234   1.411   1_455  A
C1233      O1238   1.369       .  S
C1234      C1235   1.405       .  A
C1235      C1236   1.399       .  A
C1235      H1239   1.084       .  S
C1236      O1240   1.372       .  S
O1238      H1242   0.991       .  S
O1240      H1241   0.992       .  S
C1243      C1244   1.408       .  A
C1244      C1245   1.407       .  A
C1244      H1249   1.083       .  S
C1245      C1246   1.409       .  A
C1245      O1250   1.371       .  S
C1247      C1248   1.393       .  A
C1247      H1251   1.084       .  S
C1248      O1252   1.373       .  S
O1250      H1254   0.992       .  S
O1252      H1253   0.991       .  S
C1255      C1256   1.406       .  A
C1255      C1260   1.410       .  A
C1256      C1257   1.400       .  A
C1256      H1261   1.084       .  S
C1257      C1258   1.407       .  A
C1257      O1262   1.372       .  S
C1258      C1259   1.404       .  A
C1259      C1260   1.407       .  A
C1259      H1263   1.083   1_655  S
C1260      O1264   1.371   1_655  S
O1262      H1266   0.992       .  S
O1264      H1265   0.992       .  S
C1267      C1268   1.404       .  A
C1267      C1272   1.409       .  A
C1268      C1269   1.407       .  A
C1268      H1273   1.084       .  S
C1269      C1270   1.412       .  A
C1269      O1274   1.371       .  S
C1270      C1271   1.404       .  A
C1271      C1272   1.401       .  A
C1271      H1275   1.084       .  S
O1274      H1278   0.993       .  S
O1276      H1277   0.991       .  S
C1279      C1280   1.414       .  A
C1279      C1284   1.408       .  A
C1280      C1281   1.410       .  A
C1281      C1282   1.405       .  A
C1281      O1286   1.371       .  S
C1282      C1283   1.408       .  A
C1283      C1284   1.385       .  A
C1283      H1741   1.084       .  S
C1284      O1742   1.372       .  S
O1286      H1290   0.991       .  S
H1287      C1737   1.084       .  S
O1288      C1738   1.372       .  S
O1288      H1289   0.992       .  S
C1291      C1292   1.408       .  A
C1291      C1296   1.411       .  A
C1292      C1293   1.404       .  A
C1292      H1297   1.084       .  S
C1293      C1294   1.407       .  A
C1293      O1298   1.371       .  S
C1294      C1295   1.402       .  A
C1295      C1296   1.401       .  A
C1295      H1299   1.084       .  S
C1296      O1300   1.371       .  S
O1298      H1302   0.992       .  S
O1300      H1301   0.993       .  S
C1303      C1304   1.402       .  A
C1303      C1308   1.417       .  A
C1304      C1305   1.393       .  A
C1304      H1309   1.083       .  S
C1305      C1306   1.415       .  A
C1305      O1310   1.373       .  S
C1306      C1307   1.405       .  A
C1307      C1308   1.410       .  A
C1307      H1311   1.083       .  S
C1308      O1312   1.371       .  S
O1310      H1314   0.991       .  S
O1312      H1313   0.991       .  S
C1315      C1316   1.399       .  A
C1315      C1320   1.415       .  A
C1316      C1317   1.389       .  A
C1316      H1321   1.084       .  S
C1317      C1318   1.416       .  A
C1317      O1322   1.374       .  S
C1318      C1319   1.401       .  A
C1319      C1320   1.405       .  A
C1319      H1323   1.083       .  S
C1320      O1324   1.371   1_556  S
O1322      H1326   0.993       .  S
C1327      C1328   1.405       .  A
C1327      C1332   1.416       .  A
C1328      C1329   1.397       .  A
C1328      H1333   1.083       .  S
C1329      C1330   1.405       .  A
C1329      O1334   1.372       .  S
C1330      C1331   1.402       .  A
C1331      C1332   1.405       .  A
C1331      H1335   1.084       .  S
C1332      O1336   1.371       .  S
O1334      H1338   0.992       .  S
O1336      H1337   0.992       .  S
C1339      C1340   1.402       .  A
C1339      C1344   1.414       .  A
C1340      C1341   1.394       .  A
C1340      H1345   1.084       .  S
C1341      C1342   1.412       .  A
C1341      O1346   1.372       .  S
C1342      C1343   1.404       .  A
C1343      C1344   1.405       .  A
C1343      H1347   1.083       .  S
C1344      O1348   1.371       .  S
O1346      H1350   0.993       .  S
O1348      H1349   0.991       .  S
C1351      C1352   1.410       .  A
C1351      C1356   1.413       .  A
C1352      C1353   1.405       .  A
C1352      H1357   1.084       .  S
C1353      C1354   1.407       .  A
C1353      O1358   1.372       .  S
C1354      C1355   1.401       .  A
C1355      C1356   1.398       .  A
C1355      H1359   1.084       .  S
C1356      O1360   1.371       .  S
O1358      H1362   0.992       .  S
O1360      H1361   0.992       .  S
C1363      N1364   1.356       .  A
C1363      N1368   1.360       .  A
C1363      C1581   1.477       .  S
N1364      C1365   1.356       .  A
C1365      N1366   1.353       .  A
C1365      C1566   1.480       .  S
N1366      C1367   1.358       .  A
C1367      N1368   1.363       .  A
C1367      C1373   1.466       .  S
C1369      N1370   1.356       .  A
C1369      N1601   1.360       .  A
C1369      C1557   1.475       .  S
N1370      C1371   1.356       .  A
C1371      N1599   1.353       .  A
C1371      C1542   1.484       .  S
N1372      C1598   1.356   1_554  A
N1372      C1373   1.362       .  A
C1373      N1374   1.361       .  A
N1374      C1596   1.358   1_554  A
C1375      N1376   1.360       .  A
C1375      N1380   1.358       .  A
C1375      C1521   1.479       .  S
N1376      C1377   1.363       .  A
C1377      N1378   1.358       .  A
C1377      C1385   1.468       .  S
N1378      C1379   1.354       .  A
C1379      N1380   1.361       .  A
C1379      C1530   1.488       .  S
C1381      N1382   1.356       .  A
C1381      N1613   1.360       .  A
C1381      C1494   1.476       .  S
N1382      C1383   1.358       .  A
C1383      N1611   1.356       .  A
C1383      C1506   1.481       .  S
N1384      C1610   1.357   1_554  A
N1384      C1385   1.363       .  A
C1385      N1386   1.362       .  A
N1386      C1608   1.359   1_554  A
C1387      N1388   1.361       .  A
C1387      N1392   1.355       .  A
C1387      C1485   1.475       .  S
N1388      C1389   1.365       .  A
C1389      N1390   1.361       .  A
C1389      C1395   1.471       .  S
N1390      C1391   1.356       .  A
C1391      N1392   1.355       .  A
C1391      C1470   1.482       .  S
C1393      N1621   1.359       .  A
C1393      N1398   1.355       .  A
C1393      C1458   1.472       .  S
N1394      C1620   1.359   1_554  A
N1394      C1395   1.362       .  A
C1395      N1396   1.363       .  A
N1396      C1624   1.358   1_554  A
C1397      N1623   1.358       .  A
C1397      N1398   1.357       .  A
C1397      C1446   1.487       .  S
O1399     Mn1425   2.095       .  S
C1400      C1554   1.478       .  S
C1400      O1433   1.272       .  A
C1400      O1430   1.269       .  A
O1401     Mn1408   2.179       .  S
O1401     Mn1419   2.113       .  S
O1401     Mn1423   2.190       .  S
O1402     Mn1436   2.095       .  S
O1402      C1412   1.272       .  A
O1403     Mn1419   2.105       .  S
O1403      C1426   1.272       .  A
O1404     Mn1423   2.125       .  S
O1404      C1431   1.255       .  A
O1405     Mn1425   1.951       .  S
O1405      C1421   1.216       .  S
C1406      C1533   1.486       .  S
C1406      O1409   1.256       .  A
C1406      O1432   1.230       .  A
O1407     Mn1408   2.171       .  S
O1407     Mn1441   2.117       .  S
O1407     Mn1423   2.177       .  S
Mn1408     O1413   2.118       .  S
O1410     Mn1417   2.080       .  S
O1410      C1412   1.268       .  A
C1411      C1509   1.479       .  S
C1411      O1437   1.254       .  A
C1411      O1424   1.216       .  S
C1412      C1578   1.474       .  S
O1413      C1438   1.254       .  A
O1414     Mn1417   2.110       .  S
O1414     Mn1436   2.118       .  S
O1415     Mn1419   1.955       .  S
O1415     Mn1441   1.960       .  S
O1415      C1438   1.214       .  S
C1416      C1482   1.488       .  S
C1416      O1418   1.274       .  A
Mn1417     O1430   2.085       .  S
O1418     Mn1441   2.108       .  S
Mn1419     O1435   2.111       .  S
Mn1419     O1429   1.950       .  S
O1420     Mn1425   2.092       .  S
C1421      C1473   1.479       .  S
C1421      O1439   1.253       .  A
C1422      C1497   1.482       .  S
C1422      O1435   1.274       .  A
O1424     Mn1427   1.967       .  S
Mn1425     O1443   1.954       .  S
C1426      C1518   1.490       .  S
Mn1427     O1434   2.070       .  S
Mn1427     O1442   2.091       .  S
Mn1427     O1432   1.999       .  S
C1428      C1461   1.486       .  S
C1428      O1444   1.273       .  A
O1429     Mn1441   1.951       .  S
O1429      C1431   1.213       .  S
C1431      C1569   1.478       .  S
O1433     Mn1436   2.096       .  S
C1438      C1545   1.479       .  S
O1440      C1445   1.255       .  A
Mn1441     O1444   2.096       .  S
O1443      C1445   1.217       .  S
C1445      C1449   1.484       .  S
C1446      C1447   1.409       .  A
C1446      C1451   1.410       .  A
C1447      C1448   1.408       .  A
C1447      H1679   1.083       .  S
C1448      C1449   1.409       .  A
C1448      O1453   1.371       .  S
C1449      C1450   1.405   1_655  A
C1450      C1451   1.394   1_455  A
H1452      C1674   1.083   1_554  S
O1453      H1457   0.991       .  S
O1455      H1456   0.992       .  S
C1458      C1459   1.402       .  A
C1458      C1463   1.405       .  A
C1459      C1460   1.403   1_655  A
C1459      H1691   1.084   1_655  S
C1460      C1461   1.413   1_455  A
C1460      O1465   1.370       .  S
C1461      C1462   1.406       .  A
C1462      C1463   1.400       .  A
C1462      H1466   1.083       .  S
C1463      O1467   1.372       .  S
H1464      C1686   1.083   1_455  S
O1465      H1469   0.991       .  S
O1467      H1468   0.992       .  S
C1470      C1471   1.408       .  A
C1471      C1472   1.405       .  A
C1471      H1476   1.083       .  S
C1472      C1473   1.409       .  A
C1472      O1477   1.371       .  S
C1474      C1475   1.394       .  A
C1474      H1478   1.084       .  S
C1475      O1479   1.372       .  S
O1477      H1481   0.992       .  S
O1479      H1480   0.991       .  S
C1482      C1483   1.409       .  A
C1482      C1487   1.415   1_655  A
C1483      C1484   1.408       .  A
C1483      H1488   1.083       .  S
C1484      C1485   1.407       .  A
C1484      O1489   1.371       .  S
C1485      C1486   1.399   1_655  A
C1486      C1487   1.395       .  A
C1486      H1490   1.084       .  S
C1487      O1491   1.372       .  S
O1489      H1493   0.992       .  S
O1491      H1492   0.993       .  S
C1494      C1495   1.403       .  A
C1494      C1499   1.407   1_565  A
C1495      C1496   1.404       .  A
C1495      H1500   1.083       .  S
C1496      C1497   1.410       .  A
C1496      O1501   1.370       .  S
C1497      C1498   1.406   1_565  A
C1498      C1499   1.400       .  A
C1498      H1502   1.084       .  S
C1499      O1730   1.372       .  S
O1501      H1505   0.993       .  S
O1503      C1726   1.371       .  S
O1503      H1504   0.991       .  S
C1506      C1507   1.409       .  A
C1506      C1511   1.408       .  A
C1507      C1508   1.405       .  A
C1507      H1739   1.083       .  S
C1508      C1509   1.408       .  A
C1508      O1513   1.371       .  S
C1509      C1510   1.405       .  A
C1510      C1511   1.392       .  A
H1512      C1734   1.083   1_554  S
O1513      H1517   0.992       .  S
O1515      H1516   0.992       .  S
C1518      C1519   1.409       .  A
C1518      C1523   1.414   1_565  A
C1519      C1520   1.406       .  A
C1519      H1524   1.084       .  S
C1520      C1521   1.408       .  A
C1520      O1525   1.371       .  S
C1521      C1522   1.401   1_565  A
C1522      C1523   1.401       .  A
C1522      H1526   1.084       .  S
C1523      O1527   1.372       .  S
O1525      H1529   0.992       .  S
O1527      H1528   0.993       .  S
C1530      C1531   1.398       .  A
C1530      C1535   1.418       .  A
C1531      C1532   1.388       .  A
C1531      H1536   1.084       .  S
C1532      C1533   1.421       .  A
C1532      O1537   1.374       .  S
C1533      C1534   1.402       .  A
C1534      C1535   1.409       .  A
C1534      H1538   1.083       .  S
C1535      O1539   1.371       .  S
O1537      H1541   0.990       .  S
O1539      H1540   0.991       .  S
C1542      C1543   1.401       .  A
C1542      C1547   1.415       .  A
C1543      C1544   1.392       .  A
C1543      H1548   1.083       .  S
C1544      C1545   1.412       .  A
C1544      O1549   1.373       .  S
C1545      C1546   1.403       .  A
C1546      C1547   1.405       .  A
C1546      H1550   1.083       .  S
C1547      O1551   1.371       .  S
O1549      H1553   0.992       .  S
O1551      H1779   0.992       .  S
H1552      O1778   0.992       .  S
C1554      C1555   1.402       .  A
C1554      C1559   1.412       .  A
C1555      C1556   1.397       .  A
C1555      H1560   1.084       .  S
C1556      C1557   1.409       .  A
C1556      O1561   1.372       .  S
C1557      C1558   1.403       .  A
C1558      C1559   1.404       .  A
C1558      H1562   1.084       .  S
C1559      O1563   1.371       .  S
O1561      H1565   0.992       .  S
O1563      H1564   0.992       .  S
C1566      C1567   1.400       .  A
C1566      C1571   1.414       .  A
C1567      C1568   1.391       .  A
C1567      H1572   1.084       .  S
C1568      C1569   1.413       .  A
C1568      O1573   1.373       .  S
C1569      C1570   1.403       .  A
C1570      C1571   1.405       .  A
C1570      H1574   1.083       .  S
C1571      O1575   1.371       .  S
O1573      H1577   0.993       .  S
O1575      H1576   0.992       .  S
C1578      C1579   1.406       .  A
C1578      C1583   1.406       .  A
C1579      C1580   1.403       .  A
C1579      H1584   1.084       .  S
C1580      C1581   1.408       .  A
C1580      O1585   1.371       .  S
C1581      C1582   1.405       .  A
C1582      C1583   1.397       .  A
C1582      H1586   1.084       .  S
C1583      O1587   1.372       .  S
O1585      H1589   0.992       .  S
O1587      H1588   0.992       .  S
C1590      N1591   1.354       .  A
C1590      N1595   1.360       .  A
C1590      C1808   1.472       .  S
N1591      C1592   1.356       .  A
C1592      N1593   1.352       .  A
C1592      C1793   1.478       .  S
N1593      C1594   1.359       .  A
C1594      N1595   1.363       .  A
C1594      C1600   1.465       .  S
C1596      N1597   1.355       .  A
C1596      C1784   1.467       .  S
N1597      C1598   1.357       .  A
C1598      C1769   1.487       .  S
N1599      C1600   1.359       .  A
C1600      N1601   1.361       .  A
C1602      N1603   1.355       .  A
C1602      N1607   1.355       .  A
C1602      C1748   1.465       .  S
N1603      C1604   1.358       .  A
C1604      N1605   1.363       .  A
C1604      C1612   1.467       .  S
N1605      C1606   1.360       .  A
C1606      N1607   1.359       .  A
C1606      C1757   1.493       .  S
C1608      N1609   1.354       .  A
C1608      C1721   1.473       .  S
N1609      C1610   1.355       .  A
C1610      C1733   1.488       .  S
N1611      C1612   1.358       .  A
C1612      N1613   1.363       .  A
C1614      N1615   1.361       .  A
C1614      N1619   1.355       .  A
C1614      C1712   1.482       .  S
N1615      C1616   1.365       .  A
C1616      N1617   1.361       .  A
C1616      C1622   1.470       .  S
N1617      C1618   1.355       .  A
C1618      N1619   1.354       .  A
C1618      C1697   1.481       .  S
C1620      N1625   1.356       .  A
C1620      C1685   1.475       .  S
N1621      C1622   1.361       .  A
C1622      N1623   1.362       .  A
C1624      N1625   1.356       .  A
C1624      C1673   1.487       .  S
O1626     Mn1652   2.099       .  S
C1627      C1781   1.488       .  S
C1627      O1660   1.271       .  A
C1627      O1657   1.269       .  A
O1628     Mn1635   2.182       .  S
O1628     Mn1646   2.112       .  S
O1628     Mn1650   2.182       .  S
O1629     Mn1663   2.099       .  S
O1629      C1639   1.273       .  A
O1630     Mn1646   2.090       .  S
O1630      C1653   1.271       .  A
O1631     Mn1650   2.128       .  S
O1631      C1658   1.254       .  A
O1632     Mn1652   1.955       .  S
O1632      C1648   1.217       .  S
C1633      C1760   1.490       .  S
C1633      O1636   1.256       .  A
C1633      O1659   1.212       .  S
O1634     Mn1635   2.181       .  S
O1634     Mn1668   2.121       .  S
O1634     Mn1650   2.182       .  S
Mn1635     O1640   2.114       .  S
O1637     Mn1644   2.087       .  S
O1637      C1639   1.269       .  A
C1638      C1736   1.483       .  S
C1638      O1664   1.255       .  A
C1638      O1651   1.218       .  S
C1639      C1805   1.486       .  S
O1640      C1665   1.255       .  A
O1641     Mn1644   2.115       .  S
O1641     Mn1663   2.115       .  S
O1642     Mn1646   1.974       .  S
O1642     Mn1668   1.975       .  S
O1642      C1665   1.219       .  S
C1643      C1709   1.480       .  S
C1643      O1645   1.271       .  A
Mn1644     O1657   2.087       .  S
O1645     Mn1668   2.098       .  S
Mn1646     O1662   2.061       .  S
Mn1646     O1656   1.999       .  S
O1647     Mn1652   2.101       .  S
C1648      C1700   1.476       .  S
C1648      O1666   1.253       .  A
C1649      C1724   1.481       .  S
C1649      O1662   1.265       .  A
O1651     Mn1654   1.951       .  S
Mn1652     O1670   1.956       .  S
C1653      C1745   1.488       .  S
Mn1654     O1661   2.068       .  S
Mn1654     O1669   2.085       .  S
Mn1654     O1659   1.937       .  S
C1655      C1688   1.476       .  S
C1655      O1671   1.267       .  A
O1656     Mn1668   2.000       .  S
O1656      C1658   1.234       .  A
C1658      C1796   1.475       .  S
O1660     Mn1663   2.094       .  S
C1665      C1772   1.484       .  S
O1667      C1672   1.256       .  A
Mn1668     O1671   2.074       .  S
O1670      C1672   1.217       .  S
C1672      C1676   1.486       .  S
C1673      C1674   1.408       .  A
C1673      C1678   1.410   1_655  A
C1674      C1675   1.408       .  A
C1675      C1676   1.410       .  A
C1675      O1680   1.371       .  S
C1676      C1677   1.406   1_655  A
C1677      C1678   1.396       .  A
O1680      H1684   0.991       .  S
O1682      H1683   0.992       .  S
C1685      C1686   1.404       .  A
C1685      C1690   1.408       .  A
C1686      C1687   1.403       .  A
C1687      C1688   1.408       .  A
C1687      O1692   1.371   1_655  S
C1688      C1689   1.404       .  A
C1689      C1690   1.398       .  A
C1689      H1693   1.084       .  S
C1690      O1694   1.373       .  S
O1692      H1696   0.992       .  S
O1694      H1695   0.992       .  S
C1697      C1698   1.408       .  A
C1698      C1699   1.406       .  A
C1698      H1703   1.083       .  S
C1699      C1700   1.409       .  A
C1699      O1704   1.372       .  S
C1701      C1702   1.395       .  A
C1701      H1705   1.084       .  S
C1702      O1706   1.373       .  S
O1704      H1708   0.992       .  S
O1706      H1707   0.991       .  S
C1709      C1710   1.408       .  A
C1709      C1714   1.408   1_655  A
C1710      C1711   1.409       .  A
C1710      H1715   1.083       .  S
C1711      C1712   1.410       .  A
C1711      O1716   1.371       .  S
C1712      C1713   1.404   1_655  A
C1713      C1714   1.393       .  A
C1713      H1717   1.084       .  S
C1714      O1718   1.372       .  S
O1716      H1720   0.992       .  S
O1718      H1719   0.993       .  S
C1721      C1722   1.400       .  A
C1721      C1726   1.408   1_565  A
C1722      C1723   1.394       .  A
C1722      H1727   1.084       .  S
C1723      C1724   1.415       .  A
C1723      O1728   1.373       .  S
C1724      C1725   1.405   1_565  A
C1725      C1726   1.405       .  A
C1725      H1729   1.083       .  S
O1728      H1732   0.992       .  S
O1730      H1731   0.991       .  S
C1733      C1734   1.410       .  A
C1733      C1738   1.412       .  A
C1734      C1735   1.408       .  A
C1735      C1736   1.409       .  A
C1735      O1740   1.371       .  S
C1736      C1737   1.404       .  A
C1737      C1738   1.392       .  A
O1740      H1744   0.991       .  S
O1742      H1743   0.992       .  S
C1745      C1746   1.409       .  A
C1745      C1750   1.416   1_565  A
C1746      C1747   1.399       .  A
C1746      H1751   1.083       .  S
C1747      C1748   1.403       .  A
C1747      O1752   1.372       .  S
C1748      C1749   1.398   1_565  A
C1749      C1750   1.400       .  A
C1749      H1753   1.084       .  S
C1750      O1754   1.372       .  S
O1752      H1756   0.992       .  S
O1754      H1755   0.990       .  S
C1757      C1758   1.403       .  A
C1757      C1762   1.416       .  A
C1758      C1759   1.393       .  A
C1758      H1763   1.083       .  S
C1759      C1760   1.416       .  A
C1759      O1764   1.373       .  S
C1760      C1761   1.406       .  A
C1761      C1762   1.410       .  A
C1761      H1765   1.083       .  S
C1762      O1766   1.371       .  S
O1764      H1768   0.991       .  S
O1766      H1767   0.991       .  S
C1769      C1770   1.403       .  A
C1769      C1774   1.414       .  A
C1770      C1771   1.394       .  A
C1770      H1775   1.084       .  S
C1771      C1772   1.411       .  A
C1771      O1776   1.372       .  S
C1772      C1773   1.406       .  A
C1773      C1774   1.407       .  A
C1773      H1777   1.084       .  S
C1774      O1778   1.371   1_556  S
O1776      H1780   0.992       .  S
C1781      C1782   1.408       .  A
C1781      C1786   1.417       .  A
C1782      C1783   1.398       .  A
C1782      H1787   1.083       .  S
C1783      C1784   1.404       .  A
C1783      O1788   1.372       .  S
C1784      C1785   1.399       .  A
C1785      C1786   1.402       .  A
C1785      H1789   1.084       .  S
C1786      O1790   1.372       .  S
O1788      H1792   0.992       .  S
O1790      H1791   0.992       .  S
C1793      C1794   1.398       .  A
C1793      C1798   1.415       .  A
C1794      C1795   1.386       .  A
C1794      H1799   1.084       .  S
C1795      C1796   1.416       .  A
C1795      O1800   1.374       .  S
C1796      C1797   1.402       .  A
C1797      C1798   1.406       .  A
C1797      H1801   1.083       .  S
C1798      O1802   1.370       .  S
O1800      H1804   0.992       .  S
O1802      H1803   0.992       .  S
C1805      C1806   1.411       .  A
C1805      C1810   1.411       .  A
C1806      C1807   1.405       .  A
C1806      H1811   1.083       .  S
C1807      C1808   1.405       .  A
C1807      O1812   1.372       .  S
C1808      C1809   1.401       .  A
C1809      C1810   1.397       .  A
C1809      H1813   1.084       .  S
C1810      O1814   1.372       .  S
O1812      H1816   0.992       .  S
O1814      H1815   0.992       .  S
