geometry optimzed in LAMMPS
_audit_creation_date              2020-11-30 
_audit_creation_method            'lammps2cif' 
_symmetry_space_group_name_H-M    'P1' 
_symmetry_Int_Tables_number       1 
_symmetry_cell_setting            triclinic 
loop_ 
_symmetry_equiv_pos_as_xyz 
  x,y,z 
_cell_length_a                    34.48126147 
_cell_length_b                    34.72480369544979 
_cell_length_c                    25.304304012364405 
_cell_angle_alpha                 90.32387232484724 
_cell_angle_beta                  90.10964349827954 
_cell_angle_gamma                 120.66601331491798 
loop_ 
_atom_site_label 
_atom_site_type_symbol 
_atom_site_fract_x 
_atom_site_fract_y 
_atom_site_fract_z 
_atom_site_charge 
C1          C  0.50389037  0.00849599  0.80170519     0.46700
H2          H  0.50600069  0.01264021  0.84538474    -0.02400
C3          C  0.99910620  0.49886426  0.69942300     0.46700
H4          H  0.99698253  0.49518002  0.65569443    -0.02400
C5          C  0.45799384  0.46907161  0.78231467    -0.16100
C6          C  0.51114907  0.05020928  0.77228638    -0.15800
C7          C  0.04008599  0.49941597  0.77873991    -0.16200
C8          C  0.45566959  0.46492105  0.72829934    -0.16200
C9          C  0.00811531  0.04464601  0.71710583    -0.15700
C10         C  0.03608438  0.99238140  0.72311806    -0.16100
O11         O  0.29705013  0.07389936  0.06676379    -0.77300
C12         C  0.23914073  0.16098504  0.08183724     0.83700
O13         O  0.26523072  0.10560736  0.88911316    -0.78400
O14         O  0.32862650  0.25291162  0.96195964    -0.79900
O15         O  0.42222031  0.22515671  0.06781534    -0.79700
O16         O  0.37178729  0.11391767  0.07322333    -0.78300
Zn17       Zn  0.27647327  0.11026297  0.02651879     1.55700
O18         O  0.38390591  0.26067235  0.06975474    -0.79700
Cd19       Cd  0.38263243  0.16705681  0.02713610     1.59700
Cd20       Cd  0.32612116  0.16160647  0.91692108     1.59600
O21         O  0.42011288  0.16854058  0.96526774    -0.79700
O22         O  0.32746888  0.16297858  0.99773871    -1.90200
Cd23       Cd  0.32863970  0.21690360  0.02471252     1.59900
O24         O  0.38174097  0.15792145  0.88981381    -0.79700
O25         O  0.27183137  0.19825891  0.06648320    -0.78300
C26         C  0.23536666  0.07301842  0.91625073     0.84200
C27         C  0.33444824  0.07856040  0.08225543     0.83900
O28         O  0.23702524  0.12395412  0.07230723    -0.77300
C29         C  0.41882119  0.25874784  0.08053928     0.84700
O30         O  0.23783153  0.07236538  0.96643784    -0.77400
C31         C  0.41639725  0.16385957  0.91540435     0.84800
C32         C  0.33085213  0.25223574  0.91187609     0.85100
O33         O  0.33186462  0.22079968  0.88666308    -0.79800
C34         C  0.36254013  0.35886481  0.84479974     0.81400
N35         N  0.32888139  0.36531722  0.86348928    -0.76900
C36         C  0.29450635  0.33223317  0.89205748     0.83900
N37         N  0.29500043  0.29465350  0.90294699    -0.76800
C38         C  0.32769049  0.28775304  0.88518602     0.83900
N39         N  0.36180055  0.31996996  0.85605407    -0.78600
O40         O  0.11324976  0.37399519  0.07172373    -0.77300
C41         C  0.25762331  0.42046577  0.08807307     0.83700
O42         O  0.16163362  0.38151095  0.89221644    -0.78400
O43         O  0.26038917  0.33464468  0.97041455    -0.79900
O44         O  0.12391248  0.23726588  0.07838812    -0.79700
O45         O  0.07391820  0.29954505  0.07275530    -0.78300
Zn46       Zn  0.16802102  0.38469279  0.02932741     1.55700
O47         O  0.19891917  0.27288747  0.07300979    -0.79700
Cd48       Cd  0.11153201  0.27884300  0.03173527     1.59700
Cd49       Cd  0.16675738  0.32869879  0.92290142     1.59600
O50         O  0.07278529  0.24066825  0.96870906    -0.79700
O51         O  0.16658087  0.33151819  0.00351556    -1.90200
Cd52       Cd  0.22012288  0.33154381  0.03253807     1.59900
O53         O  0.11175726  0.26817452  0.89414070    -0.79700
O54         O  0.26083320  0.38597601  0.08072662    -0.78300
C55         C  0.16688200  0.41600602  0.91676691     0.84200
C56         C  0.07807908  0.33733529  0.08391514     0.83900
O57         O  0.22411166  0.42269234  0.07089232    -0.77300
C58         C  0.16133945  0.23967837  0.08777219     0.84700
O59         O  0.17092348  0.42008040  0.96675572    -0.77400
C60         C  0.07676254  0.23904738  0.91877416     0.84800
C61         C  0.26005439  0.33707713  0.92014383     0.85100
O62         O  0.22764318  0.33641670  0.89489591    -0.79800
C63         C  0.12718930  0.12630572  0.13831574     0.81400
N64         N  0.16458348  0.12482594  0.12456554    -0.76900
C65         C  0.20125634  0.16197309  0.10571134     0.83900
N66         N  0.19982193  0.19962406  0.09906908    -0.76800
C67         C  0.16246280  0.20124956  0.10969417     0.83900
N68         N  0.12552623  0.16431293  0.12946372    -0.78600
C69         C  0.13609453  0.48664951  0.84037011     0.81400
N70         N  0.13681283  0.44964712  0.85639587    -0.76900
C71         C  0.17031336  0.45397238  0.88845238     0.83900
N72         N  0.20299474  0.49503552  0.90406979    -0.76800
C73         C  0.20062330  0.03107107  0.89117951     0.83900
N74         N  0.16692602  0.02722973  0.85891384    -0.78600
C75         C  0.99749907  0.37117988  0.13260852     0.81400
N76         N  0.03779287  0.37336740  0.12374334    -0.76900
C77         C  0.03785327  0.33656868  0.10453365     0.83900
N78         N  0.99829571  0.29880735  0.09443359    -0.76800
C79         C  0.45883693  0.29767319  0.10264935     0.83900
N80         N  0.45877613  0.33488330  0.11897211    -0.78600
C81         C  0.99381474  0.13355221  0.84988255     0.81400
N82         N  0.45395363  0.13234448  0.86449852    -0.76900
C83         C  0.45567007  0.16799504  0.88880506     0.83900
N84         N  0.99778353  0.20392498  0.90102370    -0.76800
C85         C  0.03657078  0.20482930  0.89022612     0.83900
N86         N  0.03481252  0.16911317  0.86495930    -0.78600
C87         C  0.37048571  0.50376841  0.14115329     0.81400
N88         N  0.37148954  0.04217376  0.12646741    -0.76900
C89         C  0.33383578  0.03995479  0.10616691     0.82500
N90         N  0.29677306  0.49995843  0.09800729    -0.76800
C91         C  0.29548138  0.46156358  0.11011300     0.83900
N92         N  0.33254249  0.46324390  0.13160029    -0.78600
O93         O  0.37465084  0.11532347  0.42596095    -0.77300
C94         C  0.42101603  0.25874530  0.41520762     0.83700
O95         O  0.38797874  0.16356854  0.60688405    -0.78400
O96         O  0.33081720  0.25624655  0.53246378    -0.79900
O97         O  0.23877743  0.12670718  0.42264362    -0.79700
O98         O  0.29968358  0.07538987  0.42682408    -0.78300
Zn99       Zn  0.38686547  0.16924460  0.46976694     1.55700
O100        O  0.27555147  0.20106712  0.42906896    -0.79700
Cd101      Cd  0.28061907  0.11356927  0.46826305     1.59700
Cd102      Cd  0.33355813  0.16769438  0.57772467     1.59600
O103        O  0.24395823  0.07555891  0.53055910    -0.79700
O104        O  0.33406264  0.16731537  0.49737707    -1.90200
Cd105      Cd  0.33243018  0.21965813  0.47070875     1.59900
O106        O  0.27465549  0.11297001  0.60590301    -0.79700
O107        O  0.38660185  0.26163155  0.42540787    -0.78300
C108        C  0.42129078  0.16728656  0.58082177     0.84200
C109        C  0.33760963  0.07997372  0.41470849     0.83900
O110        O  0.42420937  0.22534595  0.42934593    -0.77300
C111        C  0.24199921  0.16423787  0.41375380     0.84700
O112        O  0.42354173  0.17067189  0.53077611    -0.77400
C113        C  0.24438548  0.07897169  0.58067576     0.84800
C114        C  0.33374972  0.25591775  0.58244288     0.85100
O115        O  0.33735867  0.22597377  0.60714397    -0.79800
C116        C  0.36821735  0.36362542  0.64724800     0.81400
N117        N  0.36766926  0.32539135  0.63367034    -0.76900
C118        C  0.33076785  0.29100433  0.61044843     0.83900
N119        N  0.29519864  0.29565309  0.59883708    -0.76800
C120        C  0.29462180  0.33315499  0.61175061     0.83900
N121        N  0.33174936  0.36798243  0.63546697    -0.78600
O122        O  0.07655334  0.30251394  0.43085422    -0.77300
C123        C  0.16283090  0.24263369  0.41437099     0.83700
O124        O  0.11356907  0.27217217  0.60748599    -0.78400
O125        O  0.25945680  0.33508638  0.53432940    -0.79900
O126        O  0.22854944  0.42731881  0.43399157    -0.79700
O127        O  0.11588032  0.37658207  0.42363156    -0.78300
Zn128      Zn  0.11413181  0.28220998  0.46966681     1.55700
O129        O  0.26290139  0.38802703  0.42517482    -0.79700
Cd130      Cd  0.16890462  0.38786179  0.47246927     1.59700
Cd131      Cd  0.16770148  0.33386177  0.58095340     1.59600
O132        O  0.16574169  0.42316939  0.53557285    -0.79700
O133        O  0.16712566  0.33354475  0.49976506    -1.90200
Cd134      Cd  0.22082094  0.33364552  0.47178616     1.59900
O135        O  0.16024502  0.38737680  0.61082103    -0.79700
O136        O  0.20029923  0.27528734  0.43076297    -0.78300
C137        C  0.08060269  0.24206177  0.58031477     0.84200
C138        C  0.08031340  0.33914203  0.41511623     0.83900
O139        O  0.12573825  0.24123968  0.42240195    -0.77300
C140        C  0.26137197  0.42340151  0.41782314     0.84700
O141        O  0.07839859  0.24445378  0.53028478    -0.77400
C142        C  0.16192154  0.42009465  0.58563888     0.84800
C143        C  0.25984415  0.33838488  0.58450445     0.85100
O144        O  0.22882468  0.34047782  0.60976106    -0.79800
C145        C  0.14350970  0.00379451  0.65880199     0.81400
N146        N  0.18057086  0.04213211  0.64207928    -0.76900
C147        C  0.20992432  0.03999798  0.60850803     0.83900
N148        N  0.20257328  0.99991817  0.59225447    -0.76800
C149        C  0.16799740  0.46056618  0.61258171     0.83900
N150        N  0.13667130  0.46239393  0.64412268    -0.78600
C151        C  0.49750062  0.14086211  0.65471488     0.81400
N152        N  0.45877103  0.13947113  0.63963020    -0.76900
C153        C  0.46079148  0.17143120  0.60727445     0.83900
N154        N  0.50105057  0.20448940  0.59063173    -0.76800
C155        C  0.03976876  0.20668946  0.60558014     0.83900
N156        N  0.03824412  0.17415992  0.63716322    -0.78600
C157        C  0.49902306  0.37115085  0.36218414     0.81400
N158        N  0.45985022  0.33308837  0.37432739    -0.76900
C159        C  0.46059501  0.29677654  0.39231576     0.83900
N160        N  0.50033041  0.29908420  0.39980088    -0.76800
C161        C  0.03996058  0.33711148  0.39266656     0.83900
N162        N  0.03955366  0.37367822  0.37360672    -0.78600
C163        C  0.13411737  0.13431284  0.34847504     0.81400
N164        N  0.17116571  0.13247175  0.36284794    -0.76900
C165        C  0.20456957  0.16651442  0.39080889     0.83900
N166        N  0.20104784  0.20215193  0.40394694    -0.76800
C167        C  0.16427343  0.20438428  0.39146448     0.83900
N168        N  0.12982512  0.16991440  0.36391100    -0.78600
C169        C  0.37491689  0.50426444  0.36522568     0.81400
N170        N  0.37483828  0.04167758  0.37533534    -0.76900
C171        C  0.33722925  0.04055970  0.39343246     0.83900
N172        N  0.29962170  0.00079007  0.40170552    -0.76800
C173        C  0.29992881  0.46342310  0.39549416     0.83900
N174        N  0.33705836  0.46412354  0.37604445    -0.78600
C175        C  0.49641437  0.49755003  0.19837847     0.46700
H176        H  0.49544486  0.49744209  0.15447819    -0.02400
C177        C  0.49873126  0.49818495  0.30147574     0.46700
H178        H  0.49956414  0.49841342  0.34537812    -0.02400
C179        C  0.02946201  0.04547999  0.22594696    -0.16100
C180        C  0.45016660  0.48111399  0.22405200    -0.15800
C181        C  0.51386123  0.46818073  0.22175302    -0.16200
C182        C  0.02714512  0.04341875  0.28008251    -0.16200
C183        C  0.45139131  0.48129535  0.27822046    -0.15700
C184        C  0.51495727  0.46843157  0.27595674    -0.16100
C185        C  0.41239848  0.47359721  0.31076494    -0.15200
C186        C  0.41516969  0.50634376  0.34189346    -0.30400
H187        H  0.37980175  0.44396818  0.30280037     0.13800
H188        H  0.44633223  0.03555649  0.34686839     0.14400
C189        C  0.05671668  0.08150566  0.31539016    -0.15200
C190        C  0.10129793  0.09855528  0.31347699    -0.30400
H191        H  0.04194990  0.09271801  0.34515226     0.13800
H192        H  0.11443866  0.08325281  0.28687716     0.14400
C193        C  0.52591446  0.43870985  0.30671499    -0.15200
C194        C  0.49610899  0.40925731  0.34100420    -0.30400
H195        H  0.55483448  0.43609797  0.29527607     0.13800
H196        H  0.46508538  0.40939004  0.34816115     0.14400
C197        C  0.41122173  0.50680489  0.16506888    -0.15200
C198        C  0.40988985  0.47371732  0.19384584    -0.30400
H199        H  0.44272199  0.03948424  0.16311439     0.13800
H200        H  0.37787730  0.44331281  0.20090872     0.14400
C201        C  0.49616368  0.41156269  0.15223050    -0.15200
C202        C  0.52482249  0.43904646  0.18937976    -0.30400
H203        H  0.46597207  0.41288158  0.14361640     0.13800
H204        H  0.05296209  0.43372083  0.20291526     0.14400
C205        C  0.08846326  0.08550617  0.16005525    -0.15200
C206        C  0.06129800  0.08673179  0.19696828    -0.30400
H207        H  0.08576021  0.05367399  0.15041409     0.13800
H208        H  0.06695097  0.11879707  0.21116263     0.14400
C209        C  0.42045508  0.43770695  0.81819902    -0.15200
C210        C  0.39997577  0.39277110  0.81172719    -0.30400
H211        H  0.41132446  0.45152559  0.85120193     0.13800
H212        H  0.41322758  0.37975272  0.78220485     0.14400
C213        C  0.98890063  0.09188548  0.82775880    -0.15200
C214        C  0.52088952  0.09179247  0.80028507    -0.30400
H215        H  0.45678507  0.06097132  0.83419471     0.13800
H216        H  0.05232647  0.12073684  0.79118239     0.14400
C217        C  0.07866511  0.50560776  0.81233063    -0.15200
C218        C  0.09706087  0.47967956  0.80818740    -0.30400
H219        H  0.08926655  0.03101003  0.84129307     0.13800
H220        H  0.08115803  0.45040005  0.78253841     0.14400
C221        C  0.41095739  0.40107931  0.66875268    -0.15200
C222        C  0.41316538  0.43334162  0.69992834    -0.30400
H223        H  0.44141747  0.39965958  0.66275824     0.13800
H224        H  0.38239368  0.43277182  0.71065566     0.14400
C225        C  0.51507430  0.08213794  0.68155908    -0.15200
C226        C  0.49361324  0.10503166  0.68965568    -0.30400
H227        H  0.03576200  0.08828530  0.64619722     0.13800
H228        H  0.46867906  0.09428708  0.72079803     0.14400
C229        C  0.06667006  0.98336298  0.69013409    -0.15200
C230        C  0.11182743  0.00872575  0.69375314    -0.30400
H231        H  0.05163085  0.45780073  0.66104431     0.13800
H232        H  0.12638611  0.03762897  0.72004292     0.14400
C233        C  0.50359659  0.50847498  0.80238411     0.46700
H234        H  0.50542013  0.51280460  0.84603776    -0.02400
C235        C  0.99882805  0.99847157  0.69733985     0.46700
H236        H  0.99753801  0.99535369  0.65355238    -0.02400
C237        C  0.45796228  0.96958150  0.78178617    -0.16100
C238        C  0.51055494  0.54988355  0.77250622    -0.15800
C239        C  0.03847080  0.99790638  0.77743587    -0.16200
C240        C  0.45526406  0.96551424  0.72775296    -0.16200
C241        C  0.00863749  0.54536562  0.71869387    -0.15700
C242        C  0.03682358  0.49320100  0.72450445    -0.16100
O243        O  0.29793283  0.57411570  0.06533330    -0.77300
C244        C  0.23820779  0.65922120  0.08022820     0.83700
O245        O  0.26746026  0.60778870  0.88693068    -0.78400
O246        O  0.32902843  0.75366503  0.96383302    -0.79900
O247        O  0.42255209  0.72541848  0.06698872    -0.79700
O248        O  0.37263649  0.61414902  0.07230747    -0.78300
Zn249      Zn  0.27731234  0.61017063  0.02456889     1.55700
O250        O  0.38345701  0.76008056  0.07124433    -0.79700
Cd251      Cd  0.38345184  0.66741969  0.02622067     1.59700
Cd252      Cd  0.32767809  0.66371603  0.91633676     1.59600
O253        O  0.42135123  0.66967521  0.96427219    -0.79700
O254        O  0.32830154  0.66351582  0.99712085    -1.90200
Cd255      Cd  0.32862092  0.71661293  0.02559997     1.59900
O256        O  0.38340019  0.66075509  0.88891074    -0.79700
O257        O  0.27135975  0.69692069  0.06682432    -0.78300
C258        C  0.23816682  0.57420541  0.91331416     0.84200
C259        C  0.33524241  0.57877973  0.08119842     0.83900
O260        O  0.23620873  0.62245870  0.06924733    -0.77300
C261        C  0.41876334  0.75855378  0.08083648     0.84700
O262        O  0.24042109  0.57274404  0.96343089    -0.77400
C263        C  0.41782772  0.66598756  0.91430518     0.84800
C264        C  0.33226063  0.75422963  0.91379937     0.85100
O265        O  0.33397525  0.72354059  0.88776143    -0.79800
C266        C  0.36273515  0.86031901  0.84571697     0.81400
N267        N  0.32912996  0.86675811  0.86471376    -0.76900
C268        C  0.29553239  0.83410412  0.89456800     0.83900
N269        N  0.29674102  0.79705522  0.90627337    -0.76800
C270        C  0.32923331  0.79011674  0.88798901     0.83900
N271        N  0.36256575  0.82181205  0.85758183    -0.78600
O272        O  0.11309442  0.87226835  0.07765472    -0.77300
C273        C  0.25728222  0.92017843  0.08941813     0.83700
O274        O  0.16068642  0.88129684  0.89475006    -0.78400
O275        O  0.26059634  0.83557620  0.97254930    -0.79900
O276        O  0.12374789  0.73611655  0.07824033    -0.79700
O277        O  0.07409254  0.79786636  0.07519561    -0.78300
Zn278      Zn  0.16686098  0.88363266  0.03224278     1.55700
O279        O  0.19880812  0.77193710  0.07405359    -0.79700
Cd280      Cd  0.11154989  0.77812869  0.03283221     1.59700
Cd281      Cd  0.16668938  0.82877700  0.92465125     1.59600
O282        O  0.07284684  0.74070385  0.96983420    -0.79700
O283        O  0.16631016  0.83112610  0.00536815    -1.90200
Cd284      Cd  0.21978864  0.83115501  0.03461527     1.59900
O285        O  0.11174182  0.76828574  0.89526846    -0.79700
O286        O  0.26012842  0.88537649  0.08318545    -0.78300
C287        C  0.16405152  0.91478260  0.91988557     0.84200
C288        C  0.07817047  0.83511505  0.08895186     0.83900
O289        O  0.22385726  0.92239421  0.07188486    -0.77300
C290        C  0.16105074  0.73841565  0.08783865     0.84700
O291        O  0.16744337  0.91826423  0.96996751    -0.77400
C292        C  0.07668162  0.73923653  0.91990851     0.84800
C293        C  0.26064518  0.83847332  0.92231118     0.85100
O294        O  0.22816815  0.83753101  0.89683484    -0.79800
C295        C  0.12500679  0.62347931  0.13364433     0.81400
N296        N  0.16251240  0.62204876  0.12032137    -0.76900
C297        C  0.19984565  0.65967006  0.10351442     0.83900
N298        N  0.19901027  0.69778518  0.09850783    -0.76800
C299        C  0.16160223  0.69941240  0.10865285     0.83900
N300        N  0.12402141  0.66201233  0.12639132    -0.78600
C301        C  0.13345935  0.98540918  0.84264760     0.81400
N302        N  0.13395038  0.94837860  0.85915561    -0.76900
C303        C  0.16696558  0.95272894  0.89212545     0.83900
N304        N  0.19934477  0.99374733  0.90816930    -0.76800
C305        C  0.20403635  0.53237586  0.88746330     0.83900
N306        N  0.16977493  0.52846625  0.85623687    -0.78600
C307        C  0.99760939  0.86160218  0.15585074     0.81400
N308        N  0.03800732  0.86676781  0.13988084    -0.76900
C309        C  0.03809068  0.83286888  0.11230675     0.83900
N310        N  0.99863989  0.79573265  0.10021399    -0.76800
C311        C  0.45880200  0.79746242  0.10278116     0.83900
N312        N  0.45868709  0.83442679  0.11996044    -0.78600
C313        C  0.99322599  0.63382620  0.85160444     0.81400
N314        N  0.45438368  0.63423257  0.86231873    -0.76900
C315        C  0.45678589  0.66993407  0.88725409     0.83900
N316        N  0.99744943  0.70370397  0.90427288    -0.76800
C317        C  0.03622073  0.70514846  0.89172699     0.83900
N318        N  0.03433053  0.66968529  0.86572117    -0.78600
C319        C  0.37066064  0.00390468  0.14070641     0.81400
N320        N  0.37170793  0.54214608  0.12643084    -0.76900
C321        C  0.33434872  0.54010695  0.10541881     0.82500
N322        N  0.29629332  0.99973259  0.09904193    -0.76800
C323        C  0.29533446  0.96143794  0.11081591     0.83900
N324        N  0.33271893  0.96330529  0.13154071    -0.78600
O325        O  0.37523376  0.61676270  0.42793680    -0.77300
C326        C  0.41940627  0.75945566  0.41676364     0.83700
O327        O  0.38691369  0.66449708  0.60919662    -0.78400
O328        O  0.32894149  0.75603644  0.53311192    -0.79900
O329        O  0.23573768  0.62407196  0.42800869    -0.79700
O330        O  0.30027832  0.57637165  0.42763265    -0.78300
Zn331      Zn  0.38626249  0.67024939  0.47194724     1.55700
O332        O  0.27173220  0.69856668  0.43112815    -0.79700
Cd333      Cd  0.28024170  0.61289024  0.47063806     1.59700
Cd334      Cd  0.33242914  0.66812072  0.57930826     1.59600
O335        O  0.24536348  0.57385612  0.53300946    -0.79700
O336        O  0.33300122  0.66755477  0.49897452    -1.90200
Cd337      Cd  0.33014567  0.71907586  0.47123934     1.59900
O338        O  0.27410317  0.61311312  0.60770204    -0.79700
O339        O  0.38418868  0.76142394  0.42523238    -0.78300
C340        C  0.42023961  0.66817254  0.58324267     0.84200
C341        C  0.33845386  0.58136610  0.41600555     0.83900
O342        O  0.42316262  0.72667674  0.43218372    -0.77300
C343        C  0.23779561  0.66096439  0.41837933     0.84700
O344        O  0.42258641  0.67164888  0.53322206    -0.77400
C345        C  0.24520774  0.57800952  0.58295981     0.84800
C346        C  0.33180661  0.75587206  0.58315710     0.85100
O347        O  0.33538699  0.72604090  0.60814324    -0.79800
C348        C  0.36639488  0.86350358  0.64833209     0.81400
N349        N  0.36560725  0.82513112  0.63482710    -0.76900
C350        C  0.32886828  0.79104836  0.61099651     0.83900
N351        N  0.29362845  0.79604396  0.59888067    -0.76800
C352        C  0.29322350  0.83363921  0.61169896     0.83900
N353        N  0.33023219  0.86825003  0.63596781    -0.78600
O354        O  0.07488841  0.80198367  0.43030819    -0.77300
C355        C  0.16010429  0.74061145  0.41616671     0.83700
O356        O  0.11340505  0.77346904  0.60825712    -0.78400
O357        O  0.25748532  0.83409408  0.53403678    -0.79900
O358        O  0.22683869  0.92585421  0.43090033    -0.79700
O359        O  0.11466199  0.87591993  0.42169766    -0.78300
Zn360      Zn  0.11225037  0.78188543  0.47034800     1.55700
O361        O  0.26161390  0.88680552  0.42425201    -0.79700
Cd362      Cd  0.16770569  0.88729511  0.47028653     1.59700
Cd363      Cd  0.16692162  0.83478332  0.57997983     1.59600
O364        O  0.16534449  0.92370088  0.53264595    -0.79700
O365        O  0.16581431  0.83327489  0.49883411    -1.90200
Cd366      Cd  0.21915359  0.83251271  0.47095454     1.59900
O367        O  0.15906689  0.88822427  0.60840940    -0.79700
O368        O  0.19817881  0.77360157  0.43049975    -0.78300
C369        C  0.07983754  0.74328225  0.58194478     0.84200
C370        C  0.07890256  0.83855511  0.41382408     0.83900
O371        O  0.12339974  0.73974949  0.42524807    -0.77300
C372        C  0.25984670  0.92191870  0.41564540     0.84700
O373        O  0.07681199  0.74529641  0.53196006    -0.77400
C374        C  0.16121409  0.92090052  0.58270157     0.84800
C375        C  0.25863538  0.83895019  0.58407520     0.85100
O376        O  0.22837058  0.84251127  0.60906906    -0.79800
C377        C  0.14392018  0.50353854  0.66020151     0.81400
N378        N  0.18129579  0.54163441  0.64374989    -0.76900
C379        C  0.21106949  0.53922136  0.61126516     0.83900
N380        N  0.20386635  0.49900268  0.59583191    -0.76800
C381        C  0.16707215  0.96136041  0.60926134     0.83900
N382        N  0.13626471  0.96284370  0.64200741    -0.78600
C383        C  0.49594067  0.63970542  0.65464783     0.81400
N384        N  0.45737589  0.63918065  0.64078210    -0.76900
C385        C  0.45958026  0.67188577  0.60960316     0.83900
N386        N  0.49986245  0.70475530  0.59279057    -0.76800
C387        C  0.03939398  0.70812699  0.60817210     0.83900
N388        N  0.03812212  0.67518806  0.63883013    -0.78600
C389        C  0.49834790  0.87217118  0.36455408     0.81400
N390        N  0.45892013  0.83433474  0.37671187    -0.76900
C391        C  0.45920590  0.79764364  0.39423354     0.83900
N392        N  0.49874272  0.79937025  0.40122276    -0.76800
C393        C  0.03854475  0.83678241  0.39189141     0.83900
N394        N  0.03826400  0.87344115  0.37291852    -0.78600
C395        C  0.12325452  0.62502483  0.36873610     0.81400
N396        N  0.16116212  0.62389048  0.38055633    -0.76900
C397        C  0.19870921  0.66152030  0.39741349     0.83900
N398        N  0.19771927  0.69949724  0.40409877    -0.76800
C399        C  0.15996696  0.70098373  0.39512568     0.83900
N400        N  0.12212592  0.66345497  0.37721059    -0.78600
C401        C  0.37366719  0.00265133  0.36388299     0.81400
N402        N  0.37601006  0.54330368  0.37650533    -0.76900
C403        C  0.33842239  0.54208038  0.39493088     0.83900
N404        N  0.30100956  0.50227610  0.40372670    -0.76800
C405        C  0.29844626  0.96187625  0.39331248     0.83900
N406        N  0.33565217  0.96251712  0.37422014    -0.78600
C407        C  0.49739461  0.99761130  0.19764091     0.46700
H408        H  0.49699834  0.99735963  0.15372813    -0.02400
C409        C  0.49813645  0.99837003  0.30075245     0.46700
H410        H  0.49828877  0.99866152  0.34465835    -0.02400
C411        C  0.02846138  0.54413716  0.22311748    -0.16100
C412        C  0.45079032  0.98123618  0.22225608    -0.15800
C413        C  0.51435063  0.96819678  0.22205691    -0.16200
C414        C  0.02828246  0.54437320  0.27733609    -0.16200
C415        C  0.45116655  0.98149944  0.27641812    -0.15700
C416        C  0.51469852  0.96853255  0.27628297    -0.16100
C417        C  0.41148077  0.97331547  0.30795849    -0.15200
C418        C  0.41414311  0.00479018  0.34125286    -0.30400
H419        H  0.37874381  0.94467628  0.29780800     0.13800
H420        H  0.44711095  0.53771517  0.34526300     0.14400
C421        C  0.05780830  0.58506720  0.30929150    -0.15200
C422        C  0.08428900  0.58394532  0.34721519    -0.30400
H423        H  0.06302783  0.61713312  0.29641055     0.13800
H424        H  0.08207610  0.55231460  0.35620125     0.14400
C425        C  0.52542120  0.93897856  0.30783054    -0.15200
C426        C  0.49605007  0.91063090  0.34332647    -0.30400
H427        H  0.55366006  0.93535113  0.29600294     0.13800
H428        H  0.46554810  0.91159641  0.35107809     0.14400
C429        C  0.41163413  0.00719602  0.16422920    -0.15200
C430        C  0.41089403  0.97353593  0.19107787    -0.30400
H431        H  0.44277553  0.53854912  0.16234245     0.13800
H432        H  0.37929942  0.94229192  0.19642070     0.14400
C433        C  0.49611547  0.91092473  0.15357063    -0.15200
C434        C  0.52505787  0.93861330  0.19034291    -0.30400
H435        H  0.46584736  0.91220666  0.14520684     0.13800
H436        H  0.04702042  0.95334116  0.15636997     0.14400
C437        C  0.08607364  0.58267701  0.15515371    -0.15200
C438        C  0.05888259  0.58437258  0.19166553    -0.30400
H439        H  0.08381925  0.55086832  0.14671896     0.13800
H440        H  0.06395697  0.61664366  0.20393158     0.14400
C441        C  0.42054675  0.93865272  0.81798210    -0.15200
C442        C  0.39940718  0.89371230  0.81150125    -0.30400
H443        H  0.41234743  0.95274194  0.85152214     0.13800
H444        H  0.41186983  0.88029649  0.78152548     0.14400
C445        C  0.98855802  0.59256184  0.82841669    -0.15200
C446        C  0.52051684  0.59166281  0.80001911    -0.30400
H447        H  0.45504889  0.56254304  0.82971614     0.13800
H448        H  0.05281130  0.62187313  0.79359656     0.14400
C449        C  0.07685843  0.00454993  0.81169263    -0.15200
C450        C  0.09517836  0.97850667  0.80891448    -0.30400
H451        H  0.09142553  0.53183580  0.84224397     0.13800
H452        H  0.07962139  0.94913274  0.78339642     0.14400
C453        C  0.40933491  0.90070597  0.66996340    -0.15200
C454        C  0.41247086  0.93420917  0.69956408    -0.30400
H455        H  0.43932589  0.89825211  0.66508095     0.13800
H456        H  0.38221215  0.93499217  0.70926135     0.14400
C457        C  0.51455975  0.58151711  0.68166086    -0.15200
C458        C  0.49183357  0.60328914  0.68884025    -0.30400
H459        H  0.03592451  0.58883287  0.64747620     0.13800
H460        H  0.46607094  0.59149287  0.71912793     0.14400
C461        C  0.06698550  0.48381908  0.69110772    -0.15200
C462        C  0.11216950  0.50916466  0.69422446    -0.30400
H463        H  0.05163625  0.95790672  0.65940365     0.13800
H464        H  0.12686663  0.53847761  0.71989684     0.14400
C465        C  0.00165282  0.00607899  0.79994275     0.46700
H466        H  0.00286973  0.00959710  0.84368427    -0.02400
C467        C  0.49950758  0.49878738  0.69992473     0.46700
H468        H  0.49750417  0.49477041  0.65623607    -0.02400
C469        C  0.95774205  0.46875582  0.78187302    -0.16100
C470        C  0.00961975  0.04837011  0.77114944    -0.15800
C471        C  0.54034555  0.50019840  0.77985562    -0.16200
C472        C  0.95528868  0.46488630  0.72780294    -0.16200
C473        C  0.50896855  0.04576837  0.71826672    -0.15700
C474        C  0.53679492  0.99335716  0.72435109    -0.16100
O475        O  0.79734744  0.07331748  0.06398178    -0.77300
C476        C  0.73735935  0.15795884  0.07725855     0.83700
O477        O  0.76707654  0.10546450  0.88535609    -0.78400
O478        O  0.82816965  0.25192950  0.96128176    -0.79900
O479        O  0.92266834  0.22471686  0.06471416    -0.79700
O480        O  0.87219096  0.11317381  0.06960079    -0.78300
Zn481      Zn  0.77681057  0.10892613  0.02266752     1.55700
O482        O  0.88319941  0.25897013  0.06910649    -0.79700
Cd483      Cd  0.88330416  0.16656328  0.02390694     1.59700
Cd484      Cd  0.82723006  0.16178635  0.91410394     1.59600
O485        O  0.92118765  0.16874547  0.96214880    -0.79700
O486        O  0.82793258  0.16214822  0.99488669    -1.90200
Cd487      Cd  0.82824372  0.21528230  0.02329069     1.59900
O488        O  0.88351573  0.15952323  0.88652271    -0.79700
O489        O  0.77067913  0.19561559  0.06404156    -0.78300
C490        C  0.73767351  0.07210555  0.91192727     0.84200
C491        C  0.83479789  0.07801500  0.07918538     0.83900
O492        O  0.73539445  0.12117352  0.06660857    -0.77300
C493        C  0.91867853  0.25772460  0.07870980     0.84700
O494        O  0.73985434  0.07087678  0.96205641    -0.77400
C495        C  0.91797724  0.16507465  0.91219782     0.84800
C496        C  0.83067807  0.25189052  0.91119136     0.85100
O497        O  0.83221746  0.22099259  0.88537553    -0.79800
C498        C  0.86188719  0.35859608  0.84454107     0.81400
N499        N  0.82779110  0.36460485  0.86276238    -0.76900
C500        C  0.79337333  0.33129963  0.89114729     0.83900
N501        N  0.79434602  0.29400141  0.90240897    -0.76800
C502        C  0.82742839  0.28754475  0.88502171     0.83900
N503        N  0.86149467  0.31992660  0.85603986    -0.78600
O504        O  0.61358876  0.37330865  0.07384779    -0.77300
C505        C  0.75769391  0.41821288  0.08882129     0.83700
O506        O  0.66026360  0.38119463  0.89423119    -0.78400
O507        O  0.75893381  0.33292511  0.96952232    -0.79900
O508        O  0.62262285  0.23556040  0.07748917    -0.79700
O509        O  0.57322681  0.29891333  0.07395198    -0.78300
Zn510      Zn  0.66792038  0.38347903  0.03121196     1.55700
O511        O  0.69756261  0.27043884  0.07114862    -0.79700
Cd512      Cd  0.61055228  0.27807526  0.03238849     1.59700
Cd513      Cd  0.66569379  0.32820127  0.92344073     1.59600
O514        O  0.57152839  0.24064689  0.96941010    -0.79700
O515        O  0.66580013  0.33041306  0.00412128    -1.90200
Cd516      Cd  0.71917051  0.32970632  0.03213708     1.59900
O517        O  0.61018302  0.26819154  0.89464222    -0.79700
O518        O  0.76063699  0.38367121  0.08055739    -0.78300
C519        C  0.66587938  0.41550504  0.91954554     0.84200
C520        C  0.57799648  0.33689400  0.08555112     0.83900
O521        O  0.72414875  0.42076757  0.07255583    -0.77300
C522        C  0.65987661  0.23726914  0.08566139     0.84700
O523        O  0.67060564  0.41925554  0.96947181    -0.77400
C524        C  0.57522820  0.23920684  0.91944064     0.84800
C525        C  0.75872103  0.33588455  0.91932631     0.85100
O526        O  0.72644370  0.33577148  0.89434755    -0.79800
C527        C  0.62468367  0.12265596  0.13232838     0.81400
N528        N  0.66200566  0.12111502  0.11833127    -0.76900
C529        C  0.69889982  0.15846442  0.10020148     0.83900
N530        N  0.69778737  0.19638730  0.09462666    -0.76800
C531        C  0.66056762  0.19813233  0.10575249     0.83900
N532        N  0.62343867  0.16101842  0.12474603    -0.78600
C533        C  0.63475325  0.48668684  0.84487350     0.81400
N534        N  0.63553770  0.44957429  0.86026090    -0.76900
C535        C  0.66895959  0.45366175  0.89225926     0.83900
N536        N  0.70144341  0.49453604  0.90856091    -0.76800
C537        C  0.70335589  0.03035697  0.88623940     0.83900
N538        N  0.66864270  0.02654944  0.85603525    -0.78600
C539        C  0.49834200  0.37289563  0.13110059     0.81400
N540        N  0.53844044  0.37440332  0.12326250    -0.76900
C541        C  0.53808560  0.33686042  0.10603873     0.83900
N542        N  0.49831378  0.29905674  0.09694863    -0.76800
C543        C  0.95857919  0.29673190  0.10114061     0.83900
N544        N  0.95807705  0.33324731  0.11951351    -0.78600
C545        C  0.49274012  0.13310657  0.85215713     0.81400
N546        N  0.95533049  0.13365484  0.86121941    -0.76900
C547        C  0.95734776  0.16930588  0.88578230     0.83900
N548        N  0.49603804  0.20328494  0.90295006    -0.76800
C549        C  0.53500898  0.20488175  0.89126277     0.83900
N550        N  0.53357464  0.16933335  0.86613581    -0.78600
C551        C  0.87176761  0.50127479  0.13843521     0.81400
N552        N  0.87208853  0.04181459  0.12248737    -0.76900
C553        C  0.83416446  0.03957330  0.10332090     0.82500
N554        N  0.79649695  0.49750280  0.10069679    -0.76800
C555        C  0.79583778  0.45907977  0.11078883     0.83900
N556        N  0.83366817  0.46074926  0.12960803    -0.78600
O557        O  0.87315237  0.11456407  0.42561404    -0.77300
C558        C  0.92073055  0.25784215  0.41503096     0.83700
O559        O  0.88856987  0.16463086  0.60705414    -0.78400
O560        O  0.83082781  0.25597775  0.53018478    -0.79900
O561        O  0.73503114  0.12371370  0.42872455    -0.79700
O562        O  0.79815115  0.07481601  0.42727777    -0.78300
Zn563      Zn  0.88611565  0.16842774  0.46996116     1.55700
O564        O  0.77240102  0.19824841  0.42911314    -0.79700
Cd565      Cd  0.77962077  0.11227669  0.47075123     1.59700
Cd566      Cd  0.83380628  0.16828227  0.57812161     1.59600
O567        O  0.74531980  0.07419820  0.53384624    -0.79700
O568        O  0.83341726  0.16672716  0.49772920    -1.90200
Cd569      Cd  0.83102317  0.21814173  0.46892729     1.59900
O570        O  0.77543668  0.11366365  0.60808024    -0.79700
O571        O  0.88549223  0.25986667  0.42314065    -0.78300
C572        C  0.92123342  0.16711764  0.58074460     0.84200
C573        C  0.83591391  0.07943112  0.41431241     0.83900
O574        O  0.92418925  0.22486088  0.43031114    -0.77300
C575        C  0.73774889  0.16069933  0.41782246     0.84700
O576        O  0.92285371  0.16944645  0.53062592    -0.77400
C577        C  0.74586958  0.07856743  0.58380286     0.84800
C578        C  0.83446477  0.25677703  0.58017314     0.85100
O579        O  0.83810972  0.22724128  0.60582112    -0.79800
C580        C  0.86899292  0.36515807  0.64376573     0.81400
N581        N  0.86865056  0.32697103  0.63037533    -0.76900
C582        C  0.83182585  0.29247796  0.60711414     0.83900
N583        N  0.79626888  0.29702315  0.59512786    -0.76800
C584        C  0.79554249  0.33446739  0.60781530     0.83900
N585        N  0.83246257  0.36934133  0.63175551    -0.78600
O586        O  0.57593715  0.30235499  0.42936362    -0.77300
C587        C  0.66062294  0.24107673  0.41483908     0.83700
O588        O  0.61441593  0.27224274  0.60713577    -0.78400
O589        O  0.75910157  0.33526611  0.53090121    -0.79900
O590        O  0.72740410  0.42722131  0.43227974    -0.79700
O591        O  0.61515382  0.37647021  0.42262915    -0.78300
Zn592      Zn  0.61303767  0.28229260  0.46954642     1.55700
O593        O  0.76107888  0.38746086  0.42150564    -0.79700
Cd594      Cd  0.66808980  0.38783435  0.47143401     1.59700
Cd595      Cd  0.66787224  0.33399468  0.57950276     1.59600
O596        O  0.66496357  0.42299245  0.53483198    -0.79700
O597        O  0.66648982  0.33352247  0.49834397    -1.90200
Cd598      Cd  0.71964674  0.33322667  0.46885056     1.59900
O599        O  0.66002372  0.38709124  0.60981582    -0.79700
O600        O  0.69875870  0.27428527  0.42851574    -0.78300
C601        C  0.58050654  0.24282186  0.58056012     0.84200
C602        C  0.57981825  0.33901131  0.41353231     0.83900
O603        O  0.62394126  0.24006670  0.42449229    -0.77300
C604        C  0.75977903  0.42305238  0.41493612     0.84700
O605        O  0.57743882  0.24564636  0.53073548    -0.77400
C606        C  0.66137579  0.41976943  0.58492527     0.84800
C607        C  0.76031898  0.33925248  0.58105745     0.85100
O608        O  0.72970905  0.34161815  0.60689571    -0.79800
C609        C  0.64426462  0.00401434  0.66072644     0.81400
N610        N  0.68191163  0.04216053  0.64478774    -0.76900
C611        C  0.71179570  0.03980185  0.61237757     0.83900
N612        N  0.70425496  0.99956862  0.59634608    -0.76800
C613        C  0.66750035  0.46010418  0.61227219     0.83900
N614        N  0.63666303  0.46168540  0.64495925    -0.78600
C615        C  0.99720638  0.14013218  0.65411535     0.81400
N616        N  0.95859390  0.13904139  0.63923118    -0.76900
C617        C  0.96075286  0.17107667  0.60691096     0.83900
N618        N  0.00106525  0.20391943  0.59003731    -0.76800
C619        C  0.53985260  0.20755572  0.60629630     0.83900
N620        N  0.53849106  0.17509388  0.63788736    -0.78600
C621        C  0.99912815  0.37091939  0.36356968     0.81400
N622        N  0.95996417  0.33260966  0.37506042    -0.76900
C623        C  0.96073641  0.29635658  0.39320510     0.83900
N624        N  0.00058294  0.29897479  0.40145755    -0.76800
C625        C  0.53969868  0.33703262  0.39065620     0.83900
N626        N  0.53939485  0.37367569  0.37172142    -0.78600
C627        C  0.62337331  0.12536122  0.36775068     0.81400
N628        N  0.66108293  0.12396257  0.37994835    -0.76900
C629        C  0.69871718  0.16148392  0.39694299     0.83900
N630        N  0.69797815  0.19961740  0.40342817    -0.76800
C631        C  0.66039180  0.20134513  0.39406798     0.83900
N632        N  0.62250955  0.16394512  0.37600152    -0.78600
C633        C  0.87320106  0.50389310  0.36175627     0.81400
N634        N  0.87249098  0.04129680  0.37313378    -0.76900
C635        C  0.83510696  0.04018451  0.39193317     0.83900
N636        N  0.79749784  0.00043372  0.40021181    -0.76800
C637        C  0.79823866  0.46308359  0.39233963     0.83900
N638        N  0.83519428  0.46373704  0.37223768    -0.78600
C639        C  0.99820864  0.49735909  0.19846798     0.46700
H640        H  0.99804152  0.49720625  0.15455348    -0.02400
C641        C  0.99826380  0.49774844  0.30159089     0.46700
H642        H  0.99814486  0.49786389  0.34550099    -0.02400
C643        C  0.52781549  0.04439374  0.22196140    -0.16100
C644        C  0.95143873  0.48074343  0.22274020    -0.15800
C645        C  0.01487304  0.46775964  0.22289217    -0.16200
C646        C  0.52814424  0.04490414  0.27616686    -0.16200
C647        C  0.95142614  0.48097604  0.27691591    -0.15700
C648        C  0.01513920  0.46810992  0.27710850    -0.16100
C649        C  0.91163823  0.47334431  0.30807699    -0.15200
C650        C  0.91370308  0.50609239  0.33867929    -0.30400
H651        H  0.87924241  0.44357595  0.29976428     0.13800
H652        H  0.94369609  0.03549541  0.34400113     0.14400
C653        C  0.55830356  0.08571253  0.30765706    -0.15200
C654        C  0.58425337  0.08440872  0.34616810    -0.30400
H655        H  0.56430339  0.11791461  0.29408546     0.13800
H656        H  0.58138814  0.05259550  0.35587025     0.14400
C657        C  0.02619396  0.43881009  0.30859810    -0.15200
C658        C  0.99604070  0.40890887  0.34223359    -0.30400
H659        H  0.05557579  0.43675196  0.29790593     0.13800
H660        H  0.96465169  0.40851513  0.34852590     0.14400
C661        C  0.91295277  0.50440764  0.16068466    -0.15200
C662        C  0.91152545  0.47221882  0.19118519    -0.30400
H663        H  0.94392323  0.03941296  0.15685199     0.13800
H664        H  0.87937704  0.44234678  0.19948340     0.14400
C665        C  0.99511635  0.40931769  0.15525973    -0.15200
C666        C  0.02482067  0.43755415  0.19121476    -0.30400
H667        H  0.96465828  0.41040442  0.14771331     0.13800
H668        H  0.55256261  0.43481483  0.20183673     0.14400
C669        C  0.58625393  0.08219136  0.15505227    -0.15200
C670        C  0.55821593  0.08419236  0.19003958    -0.30400
H671        H  0.58468105  0.05046850  0.14837424     0.13800
H672        H  0.56233819  0.11640303  0.20073167     0.14400
C673        C  0.92009768  0.43748136  0.81781885    -0.15200
C674        C  0.89928787  0.39251267  0.81131777    -0.30400
H675        H  0.91117489  0.45139947  0.85089746     0.13800
H676        H  0.91235567  0.37940862  0.78167758     0.14400
C677        C  0.48887648  0.09199312  0.82979092    -0.15200
C678        C  0.02071215  0.09025869  0.79950345    -0.30400
H679        H  0.95602583  0.06161267  0.83109004     0.13800
H680        H  0.55148720  0.12298007  0.79098002     0.14400
C681        C  0.57867988  0.50671482  0.81410663    -0.15200
C682        C  0.59609111  0.47986996  0.81197775    -0.30400
H683        H  0.59214513  0.03220442  0.84127702     0.13800
H684        H  0.57974238  0.45008933  0.78715035     0.14400
C685        C  0.91147550  0.40275301  0.66557491    -0.15200
C686        C  0.91284235  0.43316496  0.69936912    -0.30400
H687        H  0.94242384  0.40265813  0.65783041     0.13800
H688        H  0.88159664  0.43088291  0.71175301     0.14400
C689        C  0.01480788  0.08147422  0.68089350    -0.15200
C690        C  0.99314431  0.10415884  0.68887642    -0.30400
H691        H  0.53564500  0.08860831  0.64660315     0.13800
H692        H  0.96787324  0.09307101  0.71969062     0.14400
C693        C  0.56713703  0.98410887  0.69111823    -0.15200
C694        C  0.61232992  0.00941873  0.69468356    -0.30400
H695        H  0.55220700  0.45879051  0.66156961     0.13800
H696        H  0.62689632  0.03853462  0.72065048     0.14400
C697        C  0.00359219  0.50784718  0.80196581     0.46700
H698        H  0.00561850  0.51186312  0.84566087    -0.02400
C699        C  0.49914158  0.99914006  0.69918961     0.46700
H700        H  0.49689381  0.99528048  0.65548461    -0.02400
C701        C  0.95601015  0.96742066  0.77848251    -0.16100
C702        C  0.01072381  0.54962218  0.77273827    -0.15800
C703        C  0.54009105  0.99966776  0.77855035    -0.16200
C704        C  0.95455589  0.96399471  0.72431012    -0.16200
C705        C  0.50864194  0.54527674  0.71854169    -0.15700
C706        C  0.53733379  0.49355888  0.72566154    -0.16100
O707        O  0.79719569  0.57231311  0.07036121    -0.77300
C708        C  0.73808873  0.65913492  0.08320477     0.83700
O709        O  0.76652765  0.60690650  0.89223835    -0.78400
O710        O  0.83285650  0.75466185  0.97005859    -0.79900
O711        O  0.92247078  0.72138572  0.07273324    -0.79700
O712        O  0.87214058  0.61110825  0.07382870    -0.78300
Zn713      Zn  0.77711057  0.60908006  0.02979224     1.55700
O714        O  0.88382002  0.75629804  0.08074056    -0.79700
Cd715      Cd  0.88345079  0.66505109  0.02958785     1.59700
Cd716      Cd  0.82740914  0.66218034  0.92128193     1.59600
O717        O  0.92161255  0.66821227  0.96748067    -0.79700
O718        O  0.82840723  0.66208453  0.00197782    -1.90200
Cd719      Cd  0.82997426  0.71572777  0.03137730     1.59900
O720        O  0.88301356  0.65900415  0.89266093    -0.79700
O721        O  0.77141274  0.69665660  0.06963326    -0.78300
C722        C  0.73694092  0.57356398  0.91866914     0.84200
C723        C  0.83471207  0.57635160  0.08421213     0.83900
O724        O  0.73640512  0.62226230  0.07394490    -0.77300
C725        C  0.91876630  0.75385159  0.08955062     0.84700
O726        O  0.73945585  0.57191707  0.96875483    -0.77400
C727        C  0.91778791  0.66448242  0.91755329     0.84800
C728        C  0.83441736  0.75413411  0.91989692     0.85100
O729        O  0.83366831  0.72215020  0.89384767    -0.79800
C730        C  0.86928090  0.86293644  0.85708019     0.81400
N731        N  0.83356397  0.86783094  0.87151848    -0.76900
C732        C  0.79726772  0.83325110  0.89631568     0.83900
N733        N  0.79774066  0.79564176  0.90746269    -0.76800
C734        C  0.83234732  0.79032240  0.89361897     0.83900
N735        N  0.86855554  0.82426038  0.86914166    -0.78600
O736        O  0.61333775  0.87356716  0.07202008    -0.77300
C737        C  0.75702700  0.91974896  0.08788677     0.83700
O738        O  0.66264499  0.88027922  0.89122956    -0.78400
O739        O  0.76101440  0.83506153  0.97315039    -0.79900
O740        O  0.62177092  0.73521622  0.07666710    -0.79700
O741        O  0.57313830  0.79913982  0.07240201    -0.78300
Zn742      Zn  0.66748525  0.88379079  0.02869748     1.55700
O743        O  0.69686276  0.77080907  0.07271178    -0.79700
Cd744      Cd  0.61046811  0.77814240  0.03120858     1.59700
Cd745      Cd  0.66741405  0.82753633  0.92283873     1.59600
O746        O  0.57206699  0.74129209  0.96772347    -0.79700
O747        O  0.66600187  0.83051241  0.00348062    -1.90200
Cd748      Cd  0.71897843  0.83039478  0.03400787     1.59900
O749        O  0.61211607  0.76748116  0.89358445    -0.79700
O750        O  0.75900535  0.88434418  0.08324359    -0.78300
C751        C  0.66622056  0.91417107  0.91557522     0.84200
C752        C  0.57788238  0.83710671  0.08403084     0.83900
O753        O  0.72425639  0.92243565  0.06896160    -0.77300
C754        C  0.65902735  0.73728872  0.08619760     0.84700
O755        O  0.66922300  0.91808692  0.96562481    -0.77400
C756        C  0.57641625  0.73935290  0.91794684     0.84800
C757        C  0.76145708  0.83707364  0.92281428     0.85100
O758        O  0.72887148  0.83511893  0.89643384    -0.79800
C759        C  0.62440936  0.62327335  0.13490199     0.81400
N760        N  0.66230270  0.62225049  0.12267444    -0.76900
C761        C  0.69919157  0.65962774  0.10472075     0.83900
N762        N  0.69756512  0.69714877  0.09758487    -0.76800
C763        C  0.65981293  0.69839680  0.10710414     0.83900
N764        N  0.62263766  0.66118812  0.12589288    -0.78600
C765        C  0.63465125  0.98481404  0.84048220     0.81400
N766        N  0.63543042  0.94771275  0.85603177    -0.76900
C767        C  0.66948685  0.95195985  0.88705223     0.83900
N768        N  0.70251248  0.99298897  0.90224933    -0.76800
C769        C  0.70241342  0.53198540  0.89272965     0.83900
N770        N  0.66829327  0.52838263  0.86142267    -0.78600
C771        C  0.49827965  0.87242651  0.13201949     0.81400
N772        N  0.53840874  0.87421218  0.12325379    -0.76900
C773        C  0.53806228  0.83690944  0.10511826     0.83900
N774        N  0.49830755  0.79911043  0.09609037    -0.76800
C775        C  0.95887292  0.79124876  0.11360203     0.83900
N776        N  0.95815394  0.82415451  0.14170301    -0.78600
C777        C  0.49274451  0.63431522  0.84968740     0.81400
N778        N  0.95471839  0.63335590  0.86471254    -0.76900
C779        C  0.95685906  0.66879445  0.89007986     0.83900
N780        N  0.49741917  0.70469889  0.90151877    -0.76800
C781        C  0.53603118  0.70567601  0.88946847     0.83900
N782        N  0.53391123  0.66998759  0.86386721    -0.78600
C783        C  0.87139875  0.00366984  0.13665227     0.81400
N784        N  0.87233296  0.53963860  0.12561144    -0.76900
C785        C  0.83422518  0.53763224  0.10738515     0.82500
N786        N  0.79637149  0.99937953  0.09715712    -0.76800
C787        C  0.79543626  0.96107736  0.10886526     0.83900
N788        N  0.83318329  0.96300407  0.12856226    -0.78600
O789        O  0.87467813  0.61615734  0.42763451    -0.77300
C790        C  0.91993237  0.75923787  0.41870856     0.83700
O791        O  0.88759169  0.66428062  0.60974751    -0.78400
O792        O  0.82861112  0.75503173  0.53577085    -0.79900
O793        O  0.73667098  0.62520604  0.42789165    -0.79700
O794        O  0.79973098  0.57611489  0.42819889    -0.78300
Zn795      Zn  0.88622934  0.66953676  0.47249961     1.55700
O796        O  0.77303687  0.69968260  0.43148199    -0.79700
Cd797      Cd  0.78013360  0.61303689  0.47141102     1.59700
Cd798      Cd  0.83285755  0.66773592  0.58067431     1.59600
O799        O  0.74457529  0.57416992  0.53368247    -0.79700
O800        O  0.83320398  0.66724568  0.50018669    -1.90200
Cd801      Cd  0.83063793  0.71909996  0.47326864     1.59900
O802        O  0.77444664  0.61235124  0.60880968    -0.79700
O803        O  0.88525549  0.76179703  0.42860818    -0.78300
C804        C  0.92082824  0.66792937  0.58361450     0.84200
C805        C  0.83770046  0.58096063  0.41570969     0.83900
O806        O  0.92330529  0.72594218  0.43279483    -0.77300
C807        C  0.73915829  0.66226268  0.41800778     0.84700
O808        O  0.92291056  0.67102656  0.53353979    -0.77400
C809        C  0.74485684  0.57779028  0.58375995     0.84800
C810        C  0.83166984  0.75509295  0.58583332     0.85100
O811        O  0.83604183  0.72567339  0.61069974    -0.79800
C812        C  0.85599942  0.85513199  0.66489847     0.81400
N813        N  0.85746835  0.81832185  0.64874305    -0.76900
C814        C  0.82657438  0.78922036  0.61352994     0.83900
N815        N  0.79453060  0.79686988  0.59497400    -0.76800
C816        C  0.79147414  0.83219301  0.61138828     0.83900
N817        N  0.82295220  0.86240087  0.64588906    -0.78600
O818        O  0.57447118  0.80165640  0.42966814    -0.77300
C819        C  0.66068695  0.74123007  0.41538002     0.83700
O820        O  0.61234040  0.77222485  0.60762700    -0.78400
O821        O  0.75703878  0.83460406  0.53357148    -0.79900
O822        O  0.72530543  0.92566449  0.43075448    -0.79700
O823        O  0.61356144  0.87590999  0.42423661    -0.78300
Zn824      Zn  0.61184838  0.78150439  0.46978696     1.55700
O825        O  0.76022650  0.88684224  0.42317435    -0.79700
Cd826      Cd  0.66701238  0.88740833  0.47184868     1.59700
Cd827      Cd  0.66579942  0.83386169  0.58015590     1.59600
O828        O  0.66584642  0.92401151  0.53496981    -0.79700
O829        O  0.66502588  0.83302222  0.49903446    -1.90200
Cd830      Cd  0.71860447  0.83292757  0.47069945     1.59900
O831        O  0.65845077  0.88728103  0.60998880    -0.79700
O832        O  0.69848041  0.77429464  0.43022703    -0.78300
C833        C  0.57902846  0.74201753  0.58101787     0.84200
C834        C  0.57832403  0.83852185  0.41459725     0.83900
O835        O  0.62374721  0.73996636  0.42425093    -0.77300
C836        C  0.75806859  0.92171736  0.41451459     0.84700
O837        O  0.57619286  0.74423290  0.53101816    -0.77400
C838        C  0.66151761  0.92067308  0.58500185     0.84800
C839        C  0.75760806  0.83844432  0.58371646     0.85100
O840        O  0.72700389  0.84128110  0.60884408    -0.79800
C841        C  0.64416394  0.50271616  0.66194452     0.81400
N842        N  0.68135905  0.54095521  0.64535511    -0.76900
C843        C  0.71065363  0.53876837  0.61178613     0.83900
N844        N  0.70314619  0.49865400  0.59542905    -0.76800
C845        C  0.66802811  0.96112289  0.61242365     0.83900
N846        N  0.63676493  0.96294232  0.64403491    -0.78600
C847        C  0.99719256  0.64085759  0.65573783     0.81400
N848        N  0.95846276  0.63976920  0.64142278    -0.76900
C849        C  0.96037188  0.67217190  0.60998291     0.83900
N850        N  0.00056105  0.70541122  0.59341453    -0.76800
C851        C  0.53849948  0.70687828  0.60705721     0.83900
N852        N  0.53695186  0.67371691  0.63750574    -0.78600
C853        C  0.99790773  0.87128129  0.36455755     0.81400
N854        N  0.95878128  0.83359093  0.37775726    -0.76900
C855        C  0.95947737  0.79725700  0.39570756     0.83900
N856        N  0.99915234  0.79919442  0.40215223    -0.76800
C857        C  0.53832619  0.83704493  0.39206769     0.83900
N858        N  0.53847051  0.87403592  0.37358351    -0.78600
C859        C  0.62514319  0.62633108  0.36638693     0.81400
N860        N  0.66314095  0.62542905  0.37847681    -0.76900
C861        C  0.70041631  0.66302914  0.39603529     0.83900
N862        N  0.69905616  0.70079327  0.40307957    -0.76800
C863        C  0.66116692  0.70202704  0.39385870     0.83900
N864        N  0.62362897  0.66450359  0.37531864    -0.78600
C865        C  0.87109570  0.00230641  0.36092540     0.81400
N866        N  0.87460162  0.54292734  0.37415121    -0.76900
C867        C  0.83722998  0.54178036  0.39329248     0.83900
N868        N  0.79966492  0.50199508  0.40158455    -0.76800
C869        C  0.79614735  0.96151802  0.39121718     0.83900
N870        N  0.83313917  0.96214848  0.37136767    -0.78600
C871        C  0.99874516  0.00017119  0.19844251     0.46700
H872        H  0.99982842  0.00170751  0.15458392    -0.02400
C873        C  0.99537253  0.99619242  0.30145453     0.46700
H874        H  0.99417830  0.99474130  0.34531521    -0.02400
C875        C  0.52700329  0.54429421  0.22268900    -0.16100
C876        C  0.95132534  0.98352166  0.22118961    -0.15800
C877        C  0.01319635  0.96853759  0.22151732    -0.16200
C878        C  0.52829337  0.54476922  0.27684349    -0.16200
C879        C  0.94971278  0.98157613  0.27524652    -0.15700
C880        C  0.01152240  0.96633595  0.27573854    -0.16100
C881        C  0.90939369  0.97304938  0.30557118    -0.15200
C882        C  0.91159840  0.00459632  0.33832673    -0.30400
H883        H  0.87688730  0.94413184  0.29524897     0.13800
H884        H  0.94556223  0.53749245  0.34245539     0.14400
C885        C  0.55880675  0.58574603  0.30797401    -0.15200
C886        C  0.58617047  0.58501904  0.34503691    -0.30400
H887        H  0.56376528  0.61770288  0.29503189     0.13800
H888        H  0.58419370  0.55348841  0.35394917     0.14400
C889        C  0.02263256  0.93647611  0.30594716    -0.15200
C890        C  0.99502043  0.90942758  0.34353253    -0.30400
H891        H  0.04961547  0.93172872  0.29168969     0.13800
H892        H  0.96526682  0.91110185  0.35347721     0.14400
C893        C  0.91269404  0.00734707  0.15948405    -0.15200
C894        C  0.91177829  0.97482725  0.18873811    -0.30400
H895        H  0.94456262  0.53596263  0.15677900     0.13800
H896        H  0.87993903  0.94416922  0.19560069     0.14400
C897        C  0.99491799  0.89430121  0.19069794    -0.15200
C898        C  0.02190499  0.93884235  0.18728199    -0.30400
H899        H  0.96684506  0.88101644  0.21811809     0.13800
H900        H  0.55289952  0.93449724  0.20273592     0.14400
C901        C  0.58596777  0.58261323  0.15706355    -0.15200
C902        C  0.55683669  0.58410089  0.19065922    -0.30400
H903        H  0.58530260  0.55122126  0.15142479     0.13800
H904        H  0.55994005  0.61600101  0.20066976     0.14400
C905        C  0.91643321  0.93799363  0.81270236    -0.15200
C906        C  0.91067570  0.89906837  0.83098844    -0.30400
H907        H  0.89001269  0.94595247  0.81750395     0.13800
H908        H  0.93740650  0.89185691  0.82359818     0.14400
C909        C  0.48795356  0.59292415  0.82705037    -0.15200
C910        C  0.02097834  0.59133831  0.80089867    -0.30400
H911        H  0.95569110  0.56218293  0.83101013     0.13800
H912        H  0.55237057  0.62220697  0.79267671     0.14400
C913        C  0.57841585  0.00532647  0.81216138    -0.15200
C914        C  0.59547625  0.97819089  0.80881836    -0.30400
H915        H  0.59185625  0.53377062  0.84296968     0.13800
H916        H  0.57869544  0.94858631  0.78375134     0.14400
C917        C  0.89245480  0.88769041  0.70020596    -0.15200
C918        C  0.91372696  0.93221689  0.69296288    -0.30400
H919        H  0.90625403  0.87438883  0.72840818     0.13800
H920        H  0.90399321  0.94542610  0.66001360     0.14400
C921        C  0.01495490  0.58197966  0.68217349    -0.15200
C922        C  0.99327738  0.60468177  0.69018276    -0.30400
H923        H  0.53634967  0.58905407  0.64763810     0.13800
H924        H  0.96801613  0.59348491  0.72102584     0.14400
C925        C  0.56751005  0.48381335  0.69273401    -0.15200
C926        C  0.61271977  0.50804384  0.69691367    -0.30400
H927        H  0.55195872  0.95830120  0.66080069     0.13800
H928        H  0.62774582  0.53679108  0.72344531     0.14400
loop_ 
_geom_bond_atom_site_label_1 
_geom_bond_atom_site_label_2 
_geom_bond_distance 
_geom_bond_site_symmetry_2 
_ccdc_geom_bond_type 
C1            H2   1.111       .  S
C1            C6   1.536       .  S
C1          C703   1.545   1_545  S
C1          C237   1.547   1_545  S
C3            H4   1.111       .  S
C3          C241   1.550   1_655  S
C3          C472   1.545       .  S
C3          C242   1.547   1_655  S
C5          C233   1.548       .  S
C5            C8   1.371       .  D
C5          C209   1.505       .  S
C6          C473   1.372       .  D
C6          C214   1.481       .  S
C7          C697   1.546       .  S
C7          C242   1.383       .  D
C7          C217   1.497       .  S
C8          C467   1.544       .  S
C8          C222   1.488       .  S
C9          C235   1.546   1_445  S
C9          C470   1.371       .  D
C9          C689   1.497       .  S
C10         C235   1.548   1_455  S
C10         C239   1.383       .  D
C10         C229   1.498       .  S
O11          C27   1.276       .  A
O11         Zn17   2.015       .  S
C12          O28   1.272       .  A
C12          O25   1.271       .  A
C12          C65   1.456       .  S
O13          C26   1.279       .  A
O13         Cd20   2.121       .  S
O14          C32   1.271       .  A
O14         Cd23   2.027   1_556  S
O15          C29   1.270       .  A
O15         Cd19   2.038       .  S
O16          C27   1.269       .  A
O16         Cd19   2.056       .  S
Zn17         O28   2.019       .  S
Zn17         O30   2.000   1_554  S
Zn17         O22   1.926   1_554  S
O18          C29   1.269       .  A
O18         Cd23   2.064       .  S
Cd19         O21   2.016   1_554  S
Cd19         O22   1.977   1_554  S
Cd20         O24   2.102       .  S
Cd20         O33   2.110       .  S
Cd20         O22   2.045       .  S
O21          C31   1.269       .  A
O22         Cd23   1.970   1_556  S
Cd23         O25   2.024       .  S
O24          C31   1.278       .  A
C26          O30   1.274       .  A
C26          C73   1.472       .  S
C27          C89   1.464       .  S
C29          C79   1.459       .  S
C31          C83   1.454       .  S
C32          O33   1.277       .  A
C32          C38   1.461       .  S
C34          N35   1.374       .  A
C34          N39   1.369       .  A
C34         C210   1.489       .  S
N35          C36   1.368       .  A
C36          C61   1.466       .  S
C36          N37   1.344       .  A
N37          C38   1.344       .  A
C38          N39   1.360       .  A
O40          C56   1.272       .  A
O40         Zn46   2.038       .  S
C41          O57   1.273       .  A
C41          O54   1.270       .  A
C41          C91   1.463       .  S
O42          C55   1.274       .  A
O42         Cd49   2.084       .  S
O43          C61   1.276       .  A
O43         Cd52   2.066   1_556  S
O44          C58   1.272       .  A
O44         Cd48   2.075       .  S
O45          C56   1.275       .  A
O45         Cd48   2.055       .  S
Zn46         O57   1.990       .  S
Zn46         O59   1.981   1_554  S
Zn46         O51   1.932       .  S
O47          C58   1.277       .  A
O47         Cd52   2.059       .  S
Cd48         O50   2.061   1_554  S
Cd48         O51   1.984       .  S
Cd49         O53   2.111       .  S
Cd49         O62   2.101       .  S
Cd49         O51   2.042   1_556  S
O50          C60   1.275       .  A
O51         Cd52   1.985       .  S
Cd52         O54   2.071       .  S
O53          C60   1.278       .  A
C55          O59   1.271       .  A
C55          C71   1.455       .  S
C56          C77   1.470       .  S
C58          C67   1.467       .  S
C60          C85   1.470       .  S
C61          O62   1.276       .  A
C63          N64   1.362       .  A
C63          N68   1.370       .  A
C63         C205   1.475       .  S
N64          C65   1.355       .  A
C65          N66   1.345       .  A
N66          C67   1.345       .  A
C67          N68   1.364       .  A
C69          N70   1.362       .  A
C69         N306   1.375       .  A
C69         C218   1.481       .  S
N70          C71   1.354       .  A
C71          N72   1.346       .  A
N72         C305   1.348       .  A
C73          N74   1.368       .  A
C73         N304   1.347   1_545  A
N74         C301   1.375   1_545  A
C75          N76   1.371   1_655  A
C75         N544   1.364       .  A
C75         C665   1.480       .  S
N76          C77   1.366       .  A
C77          N78   1.347   1_455  A
N78         C543   1.345       .  A
C79          N80   1.355       .  A
C79         N542   1.345       .  A
N80         C539   1.362       .  A
C81          N86   1.371   1_655  A
C81         N546   1.360       .  A
C81         C213   1.475       .  S
N82          C83   1.353       .  A
N82         C545   1.361       .  A
C83         N548   1.349       .  A
N84          C85   1.350   1_655  A
N84         C547   1.349       .  A
C85          N86   1.366       .  A
C87          N92   1.366       .  A
C87         N320   1.366       .  A
C87         C197   1.482       .  S
N88          C89   1.360       .  A
N88         C319   1.365       .  A
C89         N322   1.346   1_545  A
N90          C91   1.348       .  A
N90         C321   1.346       .  A
C91          N92   1.361       .  A
O93         C109   1.271       .  A
O93         Zn99   2.020       .  S
C94         O110   1.273       .  A
C94         O107   1.268       .  A
C94         C159   1.454       .  S
O95         C108   1.274       .  A
O95        Cd102   2.087       .  S
O96         C114   1.269       .  A
O96        Cd105   2.027       .  S
O97         C111   1.272       .  A
O97        Cd101   2.072       .  S
O98         C109   1.273       .  A
O98        Cd101   2.041       .  S
Zn99        O110   1.992       .  S
Zn99        O112   1.978       .  S
Zn99        O104   1.921       .  S
O100        C111   1.268       .  A
O100       Cd105   2.017       .  S
Cd101       O103   2.038       .  S
Cd101       O104   1.973       .  S
Cd102       O106   2.081       .  S
Cd102       O115   2.093       .  S
Cd102       O104   2.033       .  S
O103        C113   1.272       .  A
O104       Cd105   1.970       .  S
Cd105       O107   2.044       .  S
O106        C113   1.274       .  A
C108        O112   1.271       .  A
C108        C153   1.456       .  S
C109        C171   1.462       .  S
C111        C165   1.453       .  S
C113        C147   1.454       .  S
C114        O115   1.275       .  A
C114        C118   1.454       .  S
C116        N117   1.360       .  A
C116        N121   1.373       .  A
C116        C221   1.481       .  S
N117        C118   1.353       .  A
C118        N119   1.348       .  A
N119        C120   1.351       .  A
C120        C143   1.472       .  S
C120        N121   1.368       .  A
O122        C138   1.277       .  A
O122       Zn128   2.019       .  S
C123        O139   1.272       .  A
C123        O136   1.275       .  A
C123        C167   1.470       .  S
O124        C137   1.279       .  A
O124       Cd131   2.113       .  S
O125        C143   1.274       .  A
O125       Cd134   2.051       .  S
O126        C140   1.275       .  A
O126       Cd130   2.050       .  S
O127        C138   1.269       .  A
O127       Cd130   2.069       .  S
Zn128       O139   2.044       .  S
Zn128       O141   1.993       .  S
Zn128       O133   1.937       .  S
O129        C140   1.271       .  A
O129       Cd134   2.073       .  S
Cd130       O132   2.044       .  S
Cd130       O133   1.984       .  S
Cd131       O135   2.136       .  S
Cd131       O144   2.127       .  S
Cd131       O133   2.054       .  S
O132        C142   1.273       .  A
O133       Cd134   1.982       .  S
Cd134       O136   2.048       .  S
O135        C142   1.281       .  A
C137        O141   1.274       .  A
C137        C155   1.466       .  S
C138        C161   1.470       .  S
C140        C173   1.465       .  S
C142        C149   1.474       .  S
C143        O144   1.280       .  A
C145        N146   1.363       .  A
C145        N382   1.377   1_545  A
C145        C230   1.482       .  S
N146        C147   1.353       .  A
C147        N148   1.343   1_545  A
N148        C381   1.346       .  A
C149        N150   1.371       .  A
C149        N380   1.347       .  A
N150        C377   1.378       .  A
C151        N152   1.365       .  A
C151        N620   1.373       .  A
C151        C226   1.480       .  S
N152        C153   1.356       .  A
C153        N154   1.343       .  A
N154        C619   1.346       .  A
C155        N156   1.366       .  A
C155        N618   1.346       .  A
N156        C615   1.373   1_455  A
C157        N158   1.360       .  A
C157        N626   1.370       .  A
C157        C194   1.480       .  S
N158        C159   1.355       .  A
C159        N160   1.344       .  A
N160        C625   1.346       .  A
C161        N162   1.368       .  A
C161        N624   1.348       .  A
N162        C621   1.371   1_455  A
C163        N164   1.360       .  A
C163        N168   1.373       .  A
C163        C190   1.469       .  S
N164        C165   1.350       .  A
C165        N166   1.344       .  A
N166        C167   1.346       .  A
C167        N168   1.366       .  A
C169        N174   1.368       .  A
C169        N402   1.365       .  A
C169        C186   1.477       .  S
N170        C171   1.358       .  A
N170        C401   1.364       .  A
C171        N172   1.345       .  A
N172        C405   1.347   1_545  A
C173        N174   1.361       .  A
C173        N404   1.346       .  A
C175        H176   1.111       .  S
C175        C181   1.544       .  S
C175        C180   1.540       .  S
C175        C875   1.538       .  S
C177        H178   1.111       .  S
C177        C183   1.540       .  S
C177        C184   1.543       .  S
C177        C878   1.541       .  S
C179        C871   1.538   1_455  S
C179        C182   1.372       .  D
C179        C206   1.485       .  S
C180        C183   1.371       .  D
C180        C198   1.486       .  S
C181        C184   1.372       .  D
C181        C202   1.490       .  S
C182        C873   1.537   1_445  S
C182        C189   1.481       .  S
C183        C185   1.482       .  S
C184        C193   1.490       .  S
C185        C186   1.342       .  D
C185        H187   1.086       .  S
C186        H420   1.087       .  S
H188        C418   1.087       .  S
C189        C190   1.337       .  D
C189        H191   1.086       .  S
C190        H192   1.088       .  S
C193        C194   1.340       .  D
C193        H195   1.086       .  S
C194        H196   1.088       .  S
C197        C198   1.345       .  D
C197        H431   1.087       .  S
C198        H200   1.086       .  S
H199        C429   1.087       .  S
C201        C202   1.340       .  D
C201        C539   1.480       .  S
C201        H203   1.087       .  S
C202        H668   1.086       .  S
H204        C666   1.085       .  S
C205        C206   1.340       .  D
C205        H207   1.087       .  S
C206        H208   1.087       .  S
C209        C210   1.354       .  D
C209        H211   1.085       .  S
C210        H212   1.086       .  S
C213        C678   1.335   1_655  D
C213        H679   1.088       .  S
C214        C677   1.337       .  D
C214        H680   1.086       .  S
H215        C677   1.088       .  S
H216        C678   1.086       .  S
C217        C218   1.344       .  D
C217        H451   1.085       .  S
C218        H220   1.085       .  S
H219        C449   1.085       .  S
C221        C222   1.336       .  D
C221        H223   1.087       .  S
C222        H224   1.086       .  S
C225        C226   1.349       .  D
C225        C473   1.498       .  S
C225        H691   1.085       .  S
C226        H228   1.085       .  S
H227        C689   1.086       .  S
C229        C230   1.345   1_565  D
C229        H463   1.085       .  S
C230        H232   1.086       .  S
H231        C461   1.085       .  S
C233        H234   1.111       .  S
C233        C471   1.545       .  S
C233        C238   1.536       .  S
C235        H236   1.111       .  S
C235        C704   1.542       .  S
C237        C240   1.372       .  D
C237        C441   1.503       .  S
C238        C705   1.372       .  D
C238        C446   1.479       .  S
C239        C465   1.544   1_565  S
C239        C449   1.496   1_565  S
C240        C699   1.545       .  S
C240        C454   1.490       .  S
C241        C702   1.372       .  D
C241        C921   1.500       .  S
C242        C461   1.499       .  S
O243        C259   1.276       .  A
O243       Zn249   2.014       .  S
C244        O260   1.272       .  A
C244        O257   1.271       .  A
C244        C297   1.456       .  S
O245        C258   1.279       .  A
O245       Cd252   2.122       .  S
O246        C264   1.271       .  A
O246       Cd255   2.026   1_556  S
O247        C261   1.270       .  A
O247       Cd251   2.035       .  S
O248        C259   1.269       .  A
O248       Cd251   2.060       .  S
Zn249       O260   2.022       .  S
Zn249       O262   1.996   1_554  S
Zn249       O254   1.924   1_554  S
O250        C261   1.268       .  A
O250       Cd255   2.061       .  S
Cd251       O253   2.019   1_554  S
Cd251       O254   1.977   1_554  S
Cd252       O256   2.095       .  S
Cd252       O265   2.108       .  S
Cd252       O254   2.044       .  S
O253        C263   1.269       .  A
O254       Cd255   1.971   1_556  S
Cd255       O257   2.023       .  S
O256        C263   1.277       .  A
C258        O262   1.273       .  A
C258        C305   1.472       .  S
C259        C321   1.465       .  S
C261        C311   1.458       .  S
C263        C315   1.452       .  S
C264        O265   1.277       .  A
C264        C270   1.460       .  S
C266        N267   1.374       .  A
C266        N271   1.369       .  A
C266        C442   1.488       .  S
N267        C268   1.368       .  A
C268        C293   1.467       .  S
C268        N269   1.343       .  A
N269        C270   1.343       .  A
C270        N271   1.359       .  A
O272        C288   1.272       .  A
O272       Zn278   2.045       .  S
C273        O289   1.273       .  A
C273        O286   1.270       .  A
C273        C323   1.462       .  S
O274        C287   1.274       .  A
O274       Cd281   2.084       .  S
O275        C293   1.276       .  A
O275       Cd284   2.064   1_556  S
O276        C290   1.270       .  A
O276       Cd280   2.066       .  S
O277        C288   1.274       .  A
O277       Cd280   2.046       .  S
Zn278       O289   1.990       .  S
Zn278       O291   1.982   1_554  S
Zn278       O283   1.933       .  S
O279        C290   1.278       .  A
O279       Cd284   2.063       .  S
Cd280       O282   2.052   1_554  S
Cd280       O283   1.977       .  S
Cd281       O285   2.115       .  S
Cd281       O294   2.105       .  S
Cd281       O283   2.044   1_556  S
O282        C292   1.274       .  A
O283       Cd284   1.985       .  S
Cd284       O286   2.070       .  S
O285        C292   1.278       .  A
C287        O291   1.272       .  A
C287        C303   1.454       .  S
C288        C309   1.469       .  S
C290        C299   1.465       .  S
C292        C317   1.469       .  S
C293        O294   1.277       .  A
C295        N296   1.362       .  A
C295        N300   1.369       .  A
C295        C437   1.476       .  S
N296        C297   1.356       .  A
C297        N298   1.345       .  A
N298        C299   1.345       .  A
C299        N300   1.364       .  A
C301        N302   1.363       .  A
C301        C450   1.483       .  S
N302        C303   1.354       .  A
C303        N304   1.345       .  A
C305        N306   1.367       .  A
C307        N308   1.373   1_655  A
C307        N776   1.363       .  A
C307        C897   1.474       .  S
N308        C309   1.366       .  A
C309        N310   1.346   1_455  A
N310        C775   1.343       .  A
C311        N774   1.345       .  A
C311        N312   1.355       .  A
N312        C771   1.362       .  A
C313        N778   1.361       .  A
C313        N318   1.371   1_655  A
C313        C445   1.476       .  S
N314        C777   1.360       .  A
N314        C315   1.352       .  A
C315        N780   1.349       .  A
N316        C779   1.349       .  A
N316        C317   1.351   1_655  A
C317        N318   1.365       .  A
C319        N324   1.366   1_545  A
C319        C429   1.481       .  S
N320        C321   1.361       .  A
N322        C323   1.348       .  A
C323        N324   1.361       .  A
O325        C341   1.271       .  A
O325       Zn331   2.022       .  S
C326        O342   1.273       .  A
C326        O339   1.269       .  A
C326        C391   1.457       .  S
O327        C340   1.274       .  A
O327       Cd334   2.087       .  S
O328        C346   1.270       .  A
O328       Cd337   2.033       .  S
O329        C343   1.271       .  A
O329       Cd333   2.068       .  S
O330        C341   1.272       .  A
O330       Cd333   2.037       .  S
Zn331       O342   1.989       .  S
Zn331       O344   1.976       .  S
Zn331       O336   1.918       .  S
O332        C343   1.270       .  A
O332       Cd337   2.029       .  S
Cd333       O335   2.035       .  S
Cd333       O336   1.971       .  S
Cd334       O338   2.077       .  S
Cd334       O347   2.089       .  S
Cd334       O336   2.033       .  S
O335        C345   1.272       .  A
O336       Cd337   1.974       .  S
Cd337       O339   2.055       .  S
O338        C345   1.273       .  A
C340        O344   1.271       .  A
C340        C385   1.456       .  S
C341        C403   1.461       .  S
C343        C397   1.457       .  S
C345        C379   1.452       .  S
C346        O347   1.275       .  A
C346        C350   1.454       .  S
C348        N349   1.360       .  A
C348        N353   1.374       .  A
C348        C453   1.483       .  S
N349        C350   1.352       .  A
C350        N351   1.347       .  A
N351        C352   1.350       .  A
C352        C375   1.472       .  S
C352        N353   1.369       .  A
O354        C370   1.278       .  A
O354       Zn360   2.023       .  S
C355        O371   1.272       .  A
C355        O368   1.275       .  A
C355        C399   1.470       .  S
O356        C369   1.278       .  A
O356       Cd363   2.113       .  S
O357        C375   1.274       .  A
O357       Cd366   2.053       .  S
O358        C372   1.274       .  A
O358       Cd362   2.045       .  S
O359        C370   1.268       .  A
O359       Cd362   2.064       .  S
Zn360       O371   2.037       .  S
Zn360       O373   1.996       .  S
Zn360       O365   1.932       .  S
O361        C372   1.271       .  A
O361       Cd366   2.076       .  S
Cd362       O364   2.044       .  S
Cd362       O365   1.984       .  S
Cd363       O367   2.129       .  S
Cd363       O376   2.125       .  S
Cd363       O365   2.053       .  S
O364        C374   1.274       .  A
O365       Cd366   1.984       .  S
Cd366       O368   2.054       .  S
O367        C374   1.280       .  A
C369        O373   1.274       .  A
C369        C387   1.467       .  S
C370        C393   1.469       .  S
C372        C405   1.464       .  S
C374        C381   1.472       .  S
C375        O376   1.280       .  A
C377        N378   1.361       .  A
C377        C462   1.483       .  S
N378        C379   1.352       .  A
C379        N380   1.343       .  A
C381        N382   1.370       .  A
C383        N384   1.366       .  A
C383        N852   1.374       .  A
C383        C458   1.483       .  S
N384        C385   1.357       .  A
C385        N386   1.343       .  A
N386        C851   1.345       .  A
C387        N850   1.345       .  A
C387        N388   1.368       .  A
N388        C847   1.374   1_455  A
C389        N390   1.361       .  A
C389        N858   1.370       .  A
C389        C426   1.481       .  S
N390        C391   1.356       .  A
C391        N392   1.345       .  A
N392        C857   1.346       .  A
C393        N856   1.346   1_455  A
C393        N394   1.368       .  A
N394        C853   1.371   1_455  A
C395        N396   1.360       .  A
C395        N400   1.370       .  A
C395        C422   1.473       .  S
N396        C397   1.353       .  A
C397        N398   1.346       .  A
N398        C399   1.348       .  A
C399        N400   1.365       .  A
C401        N406   1.368   1_545  A
C401        C418   1.476       .  S
N402        C403   1.358       .  A
C403        N404   1.345       .  A
C405        N406   1.361       .  A
C407        H408   1.111       .  S
C407        C413   1.543       .  S
C407        C412   1.539       .  S
C407        C643   1.538   1_565  S
C409        H410   1.111       .  S
C409        C415   1.539       .  S
C409        C646   1.542   1_565  S
C409        C416   1.543       .  S
C411        C639   1.541   1_455  S
C411        C414   1.372       .  D
C411        C438   1.485       .  S
C412        C415   1.371       .  D
C412        C430   1.485       .  S
C413        C416   1.372       .  D
C413        C434   1.488       .  S
C414        C641   1.541   1_455  S
C414        C421   1.484       .  S
C415        C417   1.483       .  S
C416        C425   1.491       .  S
C417        C418   1.342   1_565  D
C417        H419   1.086       .  S
C421        C422   1.338       .  D
C421        H423   1.086       .  S
C422        H424   1.087       .  S
C425        C426   1.341       .  D
C425        H427   1.086       .  S
C426        H428   1.087       .  S
C429        C430   1.344   1_545  D
C430        H432   1.086       .  S
C433        C434   1.339       .  D
C433        C771   1.478       .  S
C433        H435   1.088       .  S
C434        H900   1.086       .  S
H436        C898   1.085       .  S
C437        C438   1.340       .  D
C437        H439   1.087       .  S
C438        H440   1.086       .  S
C441        C442   1.353       .  D
C441        H443   1.085       .  S
C442        H444   1.086       .  S
C445        C910   1.337   1_655  D
C445        H911   1.088       .  S
C446        C909   1.335       .  D
C446        H912   1.087       .  S
H447        C909   1.089       .  S
H448        C910   1.086       .  S
C449        C450   1.343   1_545  D
C450        H452   1.085       .  S
C453        C454   1.337       .  D
C453        H455   1.087       .  S
C454        H456   1.086       .  S
C457        C458   1.350       .  D
C457        C705   1.499       .  S
C457        H923   1.086       .  S
C458        H460   1.086       .  S
H459        C921   1.086       .  S
C461        C462   1.345       .  D
C462        H464   1.086       .  S
C465        H466   1.111       .  S
C465        C470   1.538       .  S
C465        C701   1.552   1_445  S
C467        H468   1.111       .  S
C467        C705   1.549       .  S
C467        C706   1.549       .  S
C469        C697   1.549   1_655  S
C469        C472   1.372       .  D
C469        C673   1.506       .  S
C470        C678   1.482       .  S
C471        C706   1.384       .  D
C471        C681   1.496       .  S
C472        C686   1.488       .  S
C473        C699   1.549   1_545  S
C474        C699   1.548       .  S
C474        C703   1.383       .  D
C474        C693   1.499       .  S
O475        C491   1.275       .  A
O475       Zn481   2.007       .  S
C476        O492   1.271       .  A
C476        O489   1.271       .  A
C476        C529   1.457       .  S
O477        C490   1.279       .  A
O477       Cd484   2.121       .  S
O478        C496   1.271       .  A
O478       Cd487   2.027   1_556  S
O479        C493   1.271       .  A
O479       Cd483   2.040       .  S
O480        C491   1.269       .  A
O480       Cd483   2.055       .  S
Zn481       O492   2.019       .  S
Zn481       O494   1.993   1_554  S
Zn481       O486   1.927   1_554  S
O482        C493   1.269       .  A
O482       Cd487   2.068       .  S
Cd483       O485   2.016   1_554  S
Cd483       O486   1.976   1_554  S
Cd484       O488   2.102       .  S
Cd484       O497   2.108       .  S
Cd484       O486   2.044       .  S
O485        C495   1.269       .  A
O486       Cd487   1.971   1_556  S
Cd487       O489   2.025       .  S
O488        C495   1.278       .  A
C490        O494   1.273       .  A
C490        C537   1.470       .  S
C491        C553   1.461       .  S
C493        C543   1.462       .  S
C495        C547   1.453       .  S
C496        O497   1.277       .  A
C496        C502   1.461       .  S
C498        N499   1.375       .  A
C498        N503   1.369       .  A
C498        C674   1.491       .  S
N499        C500   1.369       .  A
C500        C525   1.469       .  S
C500        N501   1.345       .  A
N501        C502   1.344       .  A
C502        N503   1.359       .  A
O504        C520   1.271       .  A
O504       Zn510   2.034       .  S
C505        O521   1.272       .  A
C505        O518   1.270       .  A
C505        C555   1.462       .  S
O506        C519   1.274       .  A
O506       Cd513   2.082       .  S
O507        C525   1.275       .  A
O507       Cd516   2.063   1_556  S
O508        C522   1.272       .  A
O508       Cd512   2.073       .  S
O509        C520   1.275       .  A
O509       Cd512   2.057       .  S
Zn510       O521   1.987       .  S
Zn510       O523   1.974   1_554  S
Zn510       O515   1.928       .  S
O511        C522   1.277       .  A
O511       Cd516   2.056       .  S
Cd512       O514   2.055   1_554  S
Cd512       O515   1.983       .  S
Cd513       O517   2.109       .  S
Cd513       O526   2.108       .  S
Cd513       O515   2.043   1_556  S
O514        C524   1.274       .  A
O515       Cd516   1.983       .  S
Cd516       O518   2.072       .  S
O517        C524   1.278       .  A
C519        O523   1.271       .  A
C519        C535   1.453       .  S
C520        C541   1.471       .  S
C522        C531   1.465       .  S
C524        C549   1.467       .  S
C525        O526   1.277       .  A
C527        N528   1.362       .  A
C527        N532   1.369       .  A
C527        C669   1.474       .  S
N528        C529   1.355       .  A
C529        N530   1.345       .  A
N530        C531   1.346       .  A
C531        N532   1.363       .  A
C533        N534   1.362       .  A
C533        N770   1.376       .  A
C533        C682   1.482       .  S
N534        C535   1.354       .  A
C535        N536   1.345       .  A
N536        C769   1.347       .  A
C537        N768   1.348   1_545  A
C537        N538   1.367       .  A
N538        C765   1.374   1_545  A
C539        N540   1.372       .  A
N540        C541   1.366       .  A
C541        N542   1.348       .  A
C543        N544   1.356       .  A
C545        N550   1.370       .  A
C545        C677   1.474       .  S
N546        C547   1.352       .  A
N548        C549   1.350       .  A
C549        N550   1.364       .  A
C551        N784   1.363       .  A
C551        N556   1.366       .  A
C551        C661   1.478       .  S
N552        C783   1.363       .  A
N552        C553   1.358       .  A
C553        N786   1.346   1_545  A
N554        C785   1.345       .  A
N554        C555   1.349       .  A
C555        N556   1.361       .  A
O557        C573   1.271       .  A
O557       Zn563   2.020       .  S
C558        O574   1.273       .  A
C558        O571   1.269       .  A
C558        C623   1.458       .  S
O559        C572   1.274       .  A
O559       Cd566   2.088       .  S
O560        C578   1.270       .  A
O560       Cd569   2.029       .  S
O561        C575   1.271       .  A
O561       Cd565   2.067       .  S
O562        C573   1.272       .  A
O562       Cd565   2.036       .  S
Zn563       O574   1.993       .  S
Zn563       O576   1.977       .  S
Zn563       O568   1.922       .  S
O564        C575   1.271       .  A
O564       Cd569   2.034       .  S
Cd565       O567   2.033       .  S
Cd565       O568   1.971       .  S
Cd566       O570   2.086       .  S
Cd566       O579   2.092       .  S
Cd566       O568   2.035       .  S
O567        C577   1.271       .  A
O568       Cd569   1.972       .  S
Cd569       O571   2.054       .  S
O570        C577   1.274       .  A
C572        O576   1.271       .  A
C572        C617   1.456       .  S
C573        C635   1.460       .  S
C575        C629   1.458       .  S
C577        C611   1.455       .  S
C578        O579   1.276       .  A
C578        C582   1.455       .  S
C580        N581   1.361       .  A
C580        N585   1.373       .  A
C580        C685   1.481       .  S
N581        C582   1.353       .  A
C582        N583   1.348       .  A
N583        C584   1.350       .  A
C584        C607   1.471       .  S
C584        N585   1.368       .  A
O586        C602   1.277       .  A
O586       Zn592   2.017       .  S
C587        O603   1.272       .  A
C587        O600   1.275       .  A
C587        C631   1.470       .  S
O588        C601   1.278       .  A
O588       Cd595   2.115       .  S
O589        C607   1.274       .  A
O589       Cd598   2.053       .  S
O590        C604   1.275       .  A
O590       Cd594   2.051       .  S
O591        C602   1.268       .  A
O591       Cd594   2.065       .  S
Zn592       O603   2.034       .  S
Zn592       O605   1.990       .  S
Zn592       O597   1.931       .  S
O593        C604   1.271       .  A
O593       Cd598   2.076       .  S
Cd594       O596   2.047       .  S
Cd594       O597   1.983       .  S
Cd595       O599   2.134       .  S
Cd595       O608   2.124       .  S
Cd595       O597   2.054       .  S
O596        C606   1.274       .  A
O597       Cd598   1.985       .  S
Cd598       O600   2.054       .  S
O599        C606   1.281       .  A
C601        O605   1.274       .  A
C601        C619   1.466       .  S
C602        C625   1.467       .  S
C604        C637   1.466       .  S
C606        C613   1.474       .  S
C607        O608   1.280       .  A
C609        N610   1.363       .  A
C609        N846   1.377   1_545  A
C609        C694   1.483       .  S
N610        C611   1.353       .  A
C611        N612   1.344   1_545  A
N612        C845   1.347       .  A
C613        N844   1.347       .  A
C613        N614   1.371       .  A
N614        C841   1.378       .  A
C615        N616   1.365       .  A
C615        C690   1.479       .  S
N616        C617   1.356       .  A
C617        N618   1.344   1_655  A
C619        N620   1.367       .  A
C621        N622   1.361       .  A
C621        C658   1.481       .  S
N622        C623   1.355       .  A
C623        N624   1.346   1_655  A
C625        N626   1.367       .  A
C627        N628   1.361       .  A
C627        N632   1.370       .  A
C627        C654   1.474       .  S
N628        C629   1.354       .  A
C629        N630   1.346       .  A
N630        C631   1.348       .  A
C631        N632   1.365       .  A
C633        N866   1.366       .  A
C633        N638   1.369       .  A
C633        C650   1.481       .  S
N634        C865   1.364       .  A
N634        C635   1.357       .  A
C635        N636   1.345       .  A
N636        C869   1.346   1_545  A
C637        N868   1.346       .  A
C637        N638   1.362       .  A
C639        H640   1.111       .  S
C639        C645   1.542   1_655  S
C639        C644   1.539       .  S
C641        H642   1.111       .  S
C641        C647   1.539       .  S
C641        C648   1.545   1_655  S
C643        C646   1.372       .  D
C643        C670   1.483       .  S
C644        C647   1.371       .  D
C644        C662   1.482       .  S
C645        C648   1.372       .  D
C645        C666   1.490       .  S
C646        C653   1.485       .  S
C647        C649   1.487       .  S
C648        C657   1.490       .  S
C649        C650   1.344       .  D
C649        H651   1.086       .  S
C650        H884   1.087       .  S
H652        C882   1.088       .  S
C653        C654   1.338       .  D
C653        H655   1.086       .  S
C654        H656   1.087       .  S
C657        C658   1.340   1_455  D
C657        H659   1.086       .  S
C658        H660   1.087       .  S
C661        C662   1.342       .  D
C661        H895   1.087       .  S
C662        H664   1.086       .  S
H663        C893   1.087       .  S
C665        C666   1.342   1_655  D
C665        H667   1.087       .  S
C669        C670   1.340       .  D
C669        H671   1.087       .  S
C670        H672   1.086       .  S
C673        C674   1.354       .  D
C673        H675   1.085       .  S
C674        H676   1.086       .  S
C681        C682   1.343       .  D
C681        H915   1.085       .  S
C682        H684   1.086       .  S
H683        C913   1.085       .  S
C685        C686   1.337       .  D
C685        H687   1.087       .  S
C686        H688   1.086       .  S
C689        C690   1.348   1_455  D
C690        H692   1.086       .  S
C693        C694   1.346   1_565  D
C693        H927   1.085       .  S
C694        H696   1.086       .  S
H695        C925   1.085       .  S
C697        H698   1.111       .  S
C697        C702   1.536       .  S
C699        H700   1.111       .  S
C701        C704   1.374       .  D
C701        C905   1.499       .  S
C702        C910   1.482       .  S
C703        C913   1.496   1_565  S
C704        C918   1.493       .  S
C706        C925   1.500       .  S
O707        C723   1.276       .  A
O707       Zn713   2.019       .  S
C708        O724   1.272       .  A
C708        O721   1.271       .  A
C708        C761   1.457       .  S
O709        C722   1.279       .  A
O709       Cd716   2.121       .  S
O710        C728   1.271       .  A
O710       Cd719   2.033   1_556  S
O711        C725   1.269       .  A
O711       Cd715   2.028       .  S
O712        C723   1.268       .  A
O712       Cd715   2.048       .  S
Zn713       O724   2.021       .  S
Zn713       O726   1.999   1_554  S
Zn713       O718   1.926       .  S
O714        C725   1.270       .  A
O714       Cd719   2.073       .  S
Cd715       O717   2.019   1_554  S
Cd715       O718   1.974       .  S
Cd716       O720   2.105       .  S
Cd716       O729   2.103       .  S
Cd716       O718   2.042   1_556  S
O717        C727   1.269       .  A
O718       Cd719   1.977       .  S
Cd719       O721   2.026       .  S
O720        C727   1.278       .  A
C722        O726   1.274       .  A
C722        C769   1.472       .  S
C723        C785   1.462       .  S
C725        C775   1.458       .  S
C727        C779   1.456       .  S
C728        O729   1.277       .  A
C728        C734   1.458       .  S
C730        N731   1.376       .  A
C730        N735   1.367       .  A
C730        C906   1.495       .  S
N731        C732   1.371       .  A
C732        C757   1.470       .  S
C732        N733   1.346       .  A
N733        C734   1.344       .  A
C734        N735   1.357       .  A
O736        C752   1.272       .  A
O736       Zn742   2.037       .  S
C737        O753   1.273       .  A
C737        O750   1.270       .  A
C737        C787   1.465       .  S
O738        C751   1.274       .  A
O738       Cd745   2.084       .  S
O739        C757   1.276       .  A
O739       Cd748   2.066   1_556  S
O740        C754   1.272       .  A
O740       Cd744   2.075       .  S
O741        C752   1.276       .  A
O741       Cd744   2.056       .  S
Zn742       O753   1.992       .  S
Zn742       O755   1.979   1_554  S
Zn742       O747   1.929       .  S
O743        C754   1.277       .  A
O743       Cd748   2.059       .  S
Cd744       O746   2.052   1_554  S
Cd744       O747   1.983       .  S
Cd745       O749   2.110       .  S
Cd745       O758   2.108       .  S
Cd745       O747   2.045   1_556  S
O746        C756   1.274       .  A
O747       Cd748   1.984       .  S
Cd748       O750   2.073       .  S
O749        C756   1.278       .  A
C751        O755   1.271       .  A
C751        C767   1.455       .  S
C752        C773   1.471       .  S
C754        C763   1.466       .  S
C756        C781   1.467       .  S
C757        O758   1.277       .  A
C759        N760   1.361       .  A
C759        N764   1.369       .  A
C759        C901   1.472       .  S
N760        C761   1.354       .  A
C761        N762   1.346       .  A
N762        C763   1.347       .  A
C763        N764   1.363       .  A
C765        N766   1.362       .  A
C765        C914   1.482       .  S
N766        C767   1.355       .  A
C767        N768   1.346       .  A
C769        N770   1.368       .  A
C771        N772   1.372       .  A
N772        C773   1.366       .  A
C773        N774   1.347       .  A
C775        N776   1.353       .  A
C777        N782   1.370       .  A
C777        C909   1.473       .  S
N778        C779   1.353       .  A
N780        C781   1.350       .  A
C781        N782   1.364       .  A
C783        N788   1.367   1_545  A
C783        C893   1.479       .  S
N784        C785   1.359       .  A
N786        C787   1.349       .  A
C787        N788   1.362       .  A
O789        C805   1.271       .  A
O789       Zn795   2.026       .  S
C790        O806   1.272       .  A
C790        O803   1.269       .  A
C790        C855   1.455       .  S
O791        C804   1.274       .  A
O791       Cd798   2.084       .  S
O792        C810   1.271       .  A
O792       Cd801   2.032       .  S
O793        C807   1.272       .  A
O793       Cd797   2.069       .  S
O794        C805   1.273       .  A
O794       Cd797   2.041       .  S
Zn795       O806   1.988       .  S
Zn795       O808   1.978       .  S
Zn795       O800   1.923       .  S
O796        C807   1.271       .  A
O796       Cd801   2.034       .  S
Cd797       O799   2.037       .  S
Cd797       O800   1.972       .  S
Cd798       O802   2.081       .  S
Cd798       O811   2.096       .  S
Cd798       O800   2.037       .  S
O799        C809   1.272       .  A
O800       Cd801   1.972       .  S
Cd801       O803   2.050       .  S
O802        C809   1.274       .  A
C804        O808   1.271       .  A
C804        C849   1.455       .  S
C805        C867   1.463       .  S
C807        C861   1.459       .  S
C809        C843   1.454       .  S
C810        O811   1.275       .  A
C810        C814   1.459       .  S
C812        N813   1.365       .  A
C812        N817   1.373       .  A
C812        C917   1.480       .  S
N813        C814   1.356       .  A
C814        N815   1.346       .  A
N815        C816   1.347       .  A
C816        C839   1.469       .  S
C816        N817   1.366       .  A
O818        C834   1.278       .  A
O818       Zn824   2.026       .  S
C819        O835   1.272       .  A
C819        O832   1.275       .  A
C819        C863   1.471       .  S
O820        C833   1.278       .  A
O820       Cd827   2.112       .  S
O821        C839   1.274       .  A
O821       Cd830   2.050       .  S
O822        C836   1.274       .  A
O822       Cd826   2.046       .  S
O823        C834   1.268       .  A
O823       Cd826   2.060       .  S
Zn824       O835   2.040       .  S
Zn824       O837   1.999       .  S
Zn824       O829   1.935       .  S
O825        C836   1.271       .  A
O825       Cd830   2.074       .  S
Cd826       O828   2.049       .  S
Cd826       O829   1.982       .  S
Cd827       O831   2.131       .  S
Cd827       O840   2.118       .  S
Cd827       O829   2.053       .  S
O828        C838   1.274       .  A
O829       Cd830   1.985       .  S
Cd830       O832   2.051       .  S
O831        C838   1.280       .  A
C833        O837   1.275       .  A
C833        C851   1.466       .  S
C834        C857   1.468       .  S
C836        C869   1.464       .  S
C838        C845   1.474       .  S
C839        O840   1.279       .  A
C841        N842   1.362       .  A
C841        C926   1.483       .  S
N842        C843   1.352       .  A
C843        N844   1.343       .  A
C845        N846   1.370       .  A
C847        N848   1.365       .  A
C847        C922   1.482       .  S
N848        C849   1.356       .  A
C849        N850   1.343   1_655  A
C851        N852   1.367       .  A
C853        N854   1.360       .  A
C853        C890   1.480       .  S
N854        C855   1.355       .  A
C855        N856   1.345       .  A
C857        N858   1.367       .  A
C859        N860   1.361       .  A
C859        N864   1.370       .  A
C859        C886   1.476       .  S
N860        C861   1.354       .  A
C861        N862   1.347       .  A
N862        C863   1.349       .  A
C863        N864   1.365       .  A
C865        N870   1.368   1_545  A
C865        C882   1.474       .  S
N866        C867   1.359       .  A
C867        N868   1.345       .  A
C869        N870   1.362       .  A
C871        H872   1.111       .  S
C871        C877   1.536   1_645  S
C871        C876   1.543   1_545  S
C873        H874   1.111       .  S
C873        C879   1.534       .  S
C873        C880   1.546   1_655  S
C875        C878   1.371       .  D
C875        C902   1.480       .  S
C876        C879   1.370       .  D
C876        C894   1.483       .  S
C877        C880   1.374       .  D
C877        C898   1.487       .  S
C878        C885   1.486       .  S
C879        C881   1.482       .  S
C880        C889   1.490       .  S
C881        C882   1.341   1_565  D
C881        H883   1.087       .  S
C885        C886   1.339       .  D
C885        H887   1.086       .  S
C886        H888   1.087       .  S
C889        C890   1.340   1_455  D
C889        H891   1.086       .  S
C890        H892   1.087       .  S
C893        C894   1.341   1_545  D
C894        H896   1.086       .  S
C897        C898   1.341   1_655  D
C897        H899   1.087       .  S
C901        C902   1.338       .  D
C901        H903   1.087       .  S
C902        H904   1.086       .  S
C905        C906   1.347       .  D
C905        H907   1.085       .  S
C906        H908   1.088       .  S
C913        C914   1.344   1_545  D
C914        H916   1.086       .  S
C917        C918   1.345       .  D
C917        H919   1.084       .  S
C918        H920   1.086       .  S
C921        C922   1.349   1_455  D
C922        H924   1.086       .  S
C925        C926   1.345       .  D
C926        H928   1.086       .  S
