geometry optimzed in LAMMPS
_audit_creation_date              2020-11-30 
_audit_creation_method            'lammps2cif' 
_symmetry_space_group_name_H-M    'P1' 
_symmetry_Int_Tables_number       1 
_symmetry_cell_setting            triclinic 
loop_ 
_symmetry_equiv_pos_as_xyz 
  x,y,z 
_cell_length_a                    43.42927837 
_cell_length_b                    24.108882612116354 
_cell_length_c                    26.193400728060706 
_cell_angle_alpha                 90.12312133088778 
_cell_angle_beta                  90.24352286063598 
_cell_angle_gamma                 89.75005832410288 
loop_ 
_atom_site_label 
_atom_site_type_symbol 
_atom_site_fract_x 
_atom_site_fract_y 
_atom_site_fract_z 
_atom_site_charge 
O1          O  0.46002932  0.00942256  0.05322575    -0.71500
O2          O  0.04701392  0.99055736  0.05384206    -0.71700
O3          O  0.50889798  0.07802823  0.05409269    -0.71600
O4          O  0.99809455  0.92186433  0.05331626    -0.71600
O5          O  0.50329247  0.92166760  0.47518197    -0.71600
O6          O  0.00085394  0.07948437  0.47561042    -0.71600
O7          O  0.04574378  0.00216371  0.47572810    -0.71500
O8          O  0.45842756  0.99919676  0.47505110    -0.71700
V9          V  0.50351342  0.99994724  0.05219131     1.35200
V10         V  0.00209214  0.00060633  0.47685186     1.35200
C11         C  0.44358087  0.00539099  0.51612485     0.77700
C12         C  0.06063010  0.99609192  0.51696646     0.77800
C13         C  0.00669329  0.10524533  0.01307812     0.77600
C14         C  0.00020772  0.89480681  0.01213549     0.77600
O15         O  0.03973884  0.98979150  0.30973592    -0.71500
O16         O  0.45266826  0.00836489  0.30944982    -0.71700
O17         O  0.99105419  0.92064122  0.30818407    -0.71600
O18         O  0.50147734  0.07729420  0.31121968    -0.71600
O19         O  0.99589483  0.07941374  0.22875093    -0.71600
O20         O  0.49673939  0.92164438  0.22577169    -0.71600
O21         O  0.45256707  0.00055496  0.22684352    -0.71500
O22         O  0.03979676  0.00063673  0.22745792    -0.71700
V23         V  0.99620490  0.99901913  0.30822362     1.35200
V24         V  0.99620966  0.00052682  0.22871886     1.35200
C25         C  0.05470418  0.99390701  0.26854513     0.77700
C26         C  0.43768034  0.00607153  0.26792980     0.77800
C27         C  0.99332076  0.89436430  0.26653828     0.77600
C28         C  0.99972264  0.10510618  0.27045213     0.77600
O29         O  0.29703995  0.00948567  0.05203669    -0.71500
O30         O  0.21029252  0.99047839  0.05272127    -0.71700
O31         O  0.25934190  0.92176167  0.05244024    -0.71600
O32         O  0.24781906  0.07797699  0.05238767    -0.71600
O33         O  0.25236011  0.08009062  0.47636719    -0.71600
O34         O  0.25118331  0.92232155  0.47380827    -0.71600
O35         O  0.20819453  0.00238801  0.47548335    -0.71500
O36         O  0.29553688  0.00021586  0.47465153    -0.71700
V37         V  0.25365299  0.99991409  0.05096143     1.35200
V38         V  0.25184597  0.00121571  0.47650734     1.35200
C39         C  0.31055605  0.00611568  0.51578406     0.77700
C40         C  0.19361339  0.99532867  0.51664169     0.77800
C41         C  0.25645543  0.89451479  0.01146523     0.77600
C42         C  0.24980208  0.10499261  0.01129272     0.77600
O43         O  0.20305834  0.99014364  0.30768142    -0.71500
O44         O  0.28971268  0.01014301  0.30723870    -0.71700
O45         O  0.24048119  0.07829023  0.30726357    -0.71600
O46         O  0.25243693  0.92187493  0.30748563    -0.71600
O47         O  0.24567560  0.92074488  0.22521384    -0.71600
O48         O  0.24660988  0.07852322  0.22493260    -0.71600
O49         O  0.28978898  0.99899882  0.22494685    -0.71500
O50         O  0.20232741  0.00041574  0.22534334    -0.71700
V51         V  0.24639429  0.00006900  0.30598615     1.35200
V52         V  0.24607522  0.99966543  0.22651829     1.35200
C53         C  0.18774886  0.99395774  0.26663362     0.77700
C54         C  0.30467505  0.00620068  0.26605456     0.77800
C55         C  0.24284308  0.10516104  0.26609508     0.77600
C56         C  0.25013533  0.89456252  0.26640781     0.77600
O57         O  0.03570694  0.71053006  0.98329845    -0.71500
O58         O  0.02886857  0.55372279  0.48792306    -0.71700
O59         O  0.03196066  0.63061872  0.41405565    -0.71600
O60         O  0.03246490  0.63498815  0.05910914    -0.71600
O61         O  0.48243388  0.63858819  0.05865265    -0.71600
O62         O  0.48216660  0.64032312  0.41411243    -0.71600
O63         O  0.47949588  0.56021888  0.98586406    -0.71500
O64         O  0.48566303  0.71817750  0.48807797    -0.71700
V65         V  0.03123091  0.63246963  0.48644572     1.35200
V66         V  0.48327689  0.63940430  0.48666051     1.35200
C67         C  0.01172747  0.74127053  0.48627726     0.77700
C68         C  0.00278647  0.53061376  0.48706018     0.77800
C69         C  0.00700082  0.63531989  0.38948596     0.77600
C70         C  0.00739910  0.63696241  0.08349609     0.77600
O71         O  0.48420134  0.71709600  0.23911011    -0.71500
O72         O  0.47970914  0.55991760  0.23430160    -0.71700
O73         O  0.48191438  0.63640633  0.30884187    -0.71600
O74         O  0.48222883  0.64067686  0.16382808    -0.71600
O75         O  0.03210455  0.63255112  0.16425888    -0.71600
O76         O  0.03196621  0.63418751  0.30913047    -0.71600
O77         O  0.02964914  0.55436073  0.23730173    -0.71500
O78         O  0.03413829  0.71230894  0.23567585    -0.71700
V79         V  0.48299315  0.63839721  0.23641547     1.35200
V80         V  0.03101220  0.63345455  0.23664145     1.35200
C81         C  0.00988873  0.74147229  0.23790922     0.77700
C82         C  0.00379997  0.53035358  0.23577465     0.77800
C83         C  0.00694281  0.63522362  0.33358700     0.77600
C84         C  0.00722971  0.63685634  0.13943063     0.77600
O85         O  0.26616023  0.71714159  0.98972924    -0.71500
O86         O  0.27127747  0.56050255  0.48719299    -0.71700
O87         O  0.26835762  0.64001329  0.41564745    -0.71600
O88         O  0.26902991  0.63769403  0.06084116    -0.71600
O89         O  0.21901043  0.63421775  0.06009280    -0.71600
O90         O  0.21851105  0.63200608  0.41532170    -0.71600
O91         O  0.22232142  0.55395025  0.98906809    -0.71500
O92         O  0.21588474  0.71267296  0.48575282    -0.71700
V93         V  0.26753768  0.63901885  0.48816417     1.35200
V94         V  0.21953923  0.63395028  0.48772919     1.35200
C95         C  0.23994067  0.74196970  0.48769323     0.77700
C96         C  0.24729128  0.53104113  0.48834359     0.77800
C97         C  0.24341615  0.63576883  0.39088795     0.77600
C98         C  0.24396030  0.63584464  0.08505330     0.77600
O99         O  0.21491545  0.71009518  0.23561958    -0.71500
O100        O  0.22235442  0.55300131  0.23882003    -0.71700
O101        O  0.21843309  0.63318080  0.31005349    -0.71600
O102        O  0.21890973  0.63005560  0.16508129    -0.71600
O103        O  0.26861324  0.64048402  0.16593623    -0.71600
O104        O  0.26843970  0.63710442  0.31074791    -0.71600
O105        O  0.27221557  0.56003460  0.23674793    -0.71500
O106        O  0.26471501  0.71738143  0.24053942    -0.71700
V107        V  0.21961674  0.63168719  0.23750141     1.35200
V108        V  0.26753474  0.63860340  0.23839781     1.35200
C109        C  0.23852157  0.74042400  0.23813431     0.77700
C110        C  0.24850537  0.52978238  0.23773551     0.77800
C111        C  0.24340183  0.63529183  0.33499706     0.77600
C112        C  0.24382588  0.63546142  0.14092122     0.77600
O113        O  0.01751383  0.28248027  0.48897076    -0.71500
O114        O  0.02528590  0.43979381  0.98674989    -0.71700
O115        O  0.02252015  0.36192924  0.05984617    -0.71600
O116        O  0.02065212  0.35964687  0.41481078    -0.71600
O117        O  0.47090424  0.37017682  0.41436035    -0.71600
O118        O  0.47247411  0.36459872  0.05897438    -0.71600
O119        O  0.47416938  0.44673682  0.48875860    -0.71500
O120        O  0.47010081  0.28846004  0.98337467    -0.71700
V121        V  0.02167257  0.36128483  0.98732165     1.35200
V122        V  0.47366912  0.36694662  0.98652535     1.35200
C123        C  0.99414653  0.25885678  0.98520907     0.77700
C124        C  0.00123423  0.46948701  0.98795251     0.77800
C125        C  0.99740652  0.36305088  0.08402721     0.77600
C126        C  0.99579709  0.36507855  0.38999167     0.77600
O127        O  0.46774252  0.28980012  0.23530090    -0.71500
O128        O  0.47529819  0.44666207  0.23686209    -0.71700
O129        O  0.47209844  0.36855577  0.16390600    -0.71600
O130        O  0.47106642  0.36782000  0.30891304    -0.71600
O131        O  0.02105254  0.36244361  0.31011478    -0.71600
O132        O  0.02182838  0.35785271  0.16525687    -0.71600
O133        O  0.02517363  0.43890908  0.23583882    -0.71500
O134        O  0.01753433  0.28152264  0.24033693    -0.71700
V135        V  0.47253032  0.36807401  0.23635370     1.35200
V136        V  0.02044475  0.36032328  0.23777505     1.35200
C137        C  0.99128596  0.25903224  0.23817968     0.77700
C138        C  0.00143206  0.46952335  0.23608962     0.77800
C139        C  0.99712273  0.36302021  0.13996723     0.77600
C140        C  0.99593546  0.36521618  0.33410740     0.77600
O141        O  0.28239037  0.28959005  0.48621667    -0.71500
O142        O  0.27731552  0.44663120  0.99074528    -0.71700
O143        O  0.28125972  0.36554613  0.06100690    -0.71600
O144        O  0.27892850  0.36978438  0.41614116    -0.71600
O145        O  0.22917512  0.36012392  0.41588872    -0.71600
O146        O  0.23126742  0.36127247  0.06052620    -0.71600
O147        O  0.22582355  0.44038536  0.48717968    -0.71500
O148        O  0.23539470  0.28203431  0.98899951    -0.71700
V149        V  0.28026268  0.36804017  0.98834836     1.35200
V150        V  0.23236121  0.36073095  0.98818164     1.35200
C151        C  0.26164180  0.25925772  0.98645510     0.77700
C152        C  0.25111173  0.46961641  0.98907933     0.77800
C153        C  0.25620906  0.36309545  0.08539278     0.77600
C154        C  0.25407019  0.36487056  0.39141835     0.77600
O155        O  0.23290624  0.28216802  0.24007013    -0.71500
O156        O  0.22718508  0.43932028  0.23635865    -0.71700
O157        O  0.23078476  0.35895049  0.16537520    -0.71600
O158        O  0.22946310  0.36252643  0.31036487    -0.71600
O159        O  0.27947769  0.36603890  0.31150414    -0.71600
O160        O  0.28063818  0.36666717  0.16658230    -0.71600
O161        O  0.27709114  0.44516676  0.23938995    -0.71500
O162        O  0.28284517  0.28745111  0.23831347    -0.71700
V163        V  0.23106822  0.36084590  0.23795198     1.35200
V164        V  0.27905575  0.36620374  0.23900112     1.35600
C165        C  0.25880914  0.25807898  0.23964874     0.77700
C166        C  0.25109256  0.46899678  0.23777195     0.77800
C167        C  0.25589566  0.36276042  0.14135530     0.77600
C168        C  0.25430902  0.36450365  0.33552897     0.77600
C169        C  0.24091391  0.16607895  0.26622200    -0.16200
C170        C  0.26097671  0.19709109  0.24002575    -0.31400
H171        H  0.22373730  0.18589830  0.29027423     0.12800
H172        H  0.28004580  0.17735575  0.22017860     0.13400
C173        C  0.25326498  0.83372402  0.26676096    -0.16200
C174        C  0.23538156  0.80127498  0.23752999    -0.31400
H175        H  0.26950811  0.81506738  0.29338777     0.12800
H176        H  0.21701700  0.81961081  0.21477007     0.13400
C177        C  0.24645878  0.16566139  0.01188032    -0.16200
C178        C  0.26487757  0.19851819  0.98451360    -0.31400
H179        H  0.23115482  0.18562880  0.54827318     0.12800
H180        H  0.28369014  0.18063011  0.96265829     0.13400
C181        C  0.25838653  0.83364213  0.01210260    -0.16200
C182        C  0.23803686  0.80205077  0.98676085    -0.31400
H183        H  0.27576791  0.81433471  0.03625472     0.12800
H184        H  0.21879145  0.82242922  0.46689375     0.13400
C185        C  0.98795837  0.19832281  0.23780824    -0.16200
C186        C  0.00277804  0.16597199  0.27158613    -0.31400
H187        H  0.47174754  0.18007392  0.21095455     0.12800
H188        H  0.01661775  0.18469744  0.30163829     0.13400
C189        C  0.99165983  0.83336787  0.26573522    -0.16200
C190        C  0.01156743  0.80255341  0.23852873    -0.31400
H191        H  0.47492923  0.81327304  0.29016871     0.12800
H192        H  0.03026130  0.82249567  0.21823150     0.13400
C193        C  0.38710411  0.02038953  0.31195695    -0.13100
C194        C  0.40366133  0.00898295  0.26717267     0.09100
C195        C  0.38738424  0.99920659  0.22155034    -0.13100
C196        C  0.35522715  0.99925169  0.22103022    -0.13100
C197        C  0.33866133  0.00913713  0.26608931     0.09100
C198        C  0.35490874  0.02050644  0.31142121    -0.13100
H199        H  0.39903601  0.02886998  0.34748419     0.13000
H200        H  0.39948839  0.99051297  0.18636956     0.13000
H201        H  0.34334676  0.99057807  0.18546373     0.13000
H202        H  0.34273557  0.02901279  0.34655745     0.13000
C203        C  0.13691178  0.99874804  0.22154178    -0.13100
C204        C  0.15372460  0.99174305  0.26701161     0.09100
C205        C  0.13769674  0.98387067  0.31293285    -0.13100
C206        C  0.10549952  0.98386078  0.31348742    -0.13100
C207        C  0.08872054  0.99173702  0.26810116     0.09100
C208        C  0.10476634  0.99874399  0.22209891    -0.13100
H209        H  0.14857949  0.00492948  0.18559532     0.13000
H210        H  0.15004688  0.97805696  0.34853708     0.13000
H211        H  0.09375435  0.97804156  0.34940882     0.13000
H212        H  0.09246708  0.00491587  0.18647961     0.13000
C213        C  0.99194925  0.19808027  0.98326631    -0.16200
C214        C  0.00915941  0.16602738  0.01395727    -0.31400
H215        H  0.47156667  0.17933637  0.46220823     0.12800
H216        H  0.02408778  0.18500515  0.04240691     0.13400
C217        C  0.01442459  0.80216315  0.48570801    -0.16200
C218        C  0.99726984  0.83406929  0.01254147    -0.31400
H219        H  0.03186275  0.82083261  0.46164736     0.12800
H220        H  0.48183235  0.81552120  0.04020295     0.13400
C221        C  0.39309117  0.99897625  0.47021656    -0.13100
C222        C  0.40956843  0.00771512  0.51577682     0.09100
C223        C  0.39451931  0.01972592  0.05604256    -0.13100
C224        C  0.36232615  0.01961955  0.05574792    -0.13100
C225        C  0.34457035  0.00829065  0.51555231     0.09100
C226        C  0.36092672  0.99928449  0.47010609    -0.13100
H227        H  0.40505988  0.99101124  0.43478246     0.13000
H228        H  0.40651099  0.02916550  0.09132422     0.13000
H229        H  0.35024932  0.02898719  0.09082021     0.13000
H230        H  0.34886744  0.99150709  0.43456321     0.13000
C231        C  0.11269962  0.98291813  0.05766923    -0.13100
C232        C  0.09464341  0.99437078  0.51692206     0.09100
C233        C  0.11119017  0.98135682  0.56157121    -0.13100
C234        C  0.14339439  0.98103879  0.56145599    -0.13100
C235        C  0.15961543  0.99375445  0.51671181     0.09100
C236        C  0.14489598  0.98291405  0.05736762    -0.13100
H237        H  0.10087162  0.97494745  0.09317753     0.13000
H238        H  0.09925381  0.97142027  0.59653558     0.13000
H239        H  0.15559511  0.97093286  0.59638024     0.13000
H240        H  0.15717514  0.97492435  0.09268250     0.13000
O241        O  0.45861320  0.00910865  0.55747526    -0.71500
O242        O  0.04563295  0.99202038  0.55808992    -0.71700
O243        O  0.50687608  0.07891934  0.55803774    -0.71600
O244        O  0.99729946  0.92216528  0.55753217    -0.71600
O245        O  0.50427149  0.92116128  0.97100935    -0.71600
O246        O  0.00275440  0.07903991  0.97166564    -0.71600
O247        O  0.04714072  0.00104201  0.97151837    -0.71500
O248        O  0.45987504  0.99926288  0.97082409    -0.71700
V249        V  0.50210975  0.00053831  0.55634747     1.35200
V250        V  0.00351891  0.00012011  0.97268257     1.35200
C251        C  0.44500892  0.00551797  0.01185636     0.77700
C252        C  0.06202074  0.99479286  0.01271898     0.77800
C253        C  0.00443451  0.10597835  0.51693028     0.77600
C254        C  0.99959953  0.89513026  0.51631409     0.77600
O255        O  0.04330068  0.98850051  0.80717225    -0.71500
O256        O  0.45638621  0.00833291  0.80743500    -0.71700
O257        O  0.99430614  0.92026330  0.80671280    -0.71600
O258        O  0.50544850  0.07664458  0.80803549    -0.71600
O259        O  0.99904190  0.07800761  0.72570469    -0.71600
O260        O  0.50028573  0.92017244  0.72434235    -0.71600
O261        O  0.45594106  0.99863944  0.72499382    -0.71500
O262        O  0.04325703  0.99948261  0.72490508    -0.71700
V263        V  0.99984572  0.99845430  0.80592081     1.35200
V264        V  0.99961682  0.99906884  0.72643954     1.35200
C265        C  0.05821371  0.99249575  0.76593787     0.77700
C266        C  0.44121728  0.00491717  0.76617928     0.77800
C267        C  0.99654950  0.89347435  0.76536700     0.77600
C268        C  0.00319730  0.10408786  0.76712181     0.77600
O269        O  0.29569842  0.00940384  0.55714445    -0.71500
O270        O  0.20889610  0.99042642  0.55763417    -0.71700
O271        O  0.25800219  0.92166647  0.55607639    -0.71600
O272        O  0.24654609  0.07811824  0.55872896    -0.71600
O273        O  0.25400394  0.07862810  0.97006324    -0.71600
O274        O  0.25229005  0.92075598  0.97021704    -0.71600
O275        O  0.20957313  0.00127183  0.97042855    -0.71500
O276        O  0.29697191  0.99813690  0.96976694    -0.71700
V277        V  0.25229437  0.99991236  0.55597293     1.35200
V278        V  0.25325047  0.99968486  0.97149850     1.35200
C279        C  0.31195167  0.00502623  0.01082765     0.77700
C280        C  0.19499910  0.99487569  0.01170638     0.77800
C281        C  0.25537079  0.89523920  0.51457823     0.77600
C282        C  0.24843688  0.10585293  0.51798213     0.77600
O283        O  0.20634958  0.99051228  0.80693514    -0.71500
O284        O  0.29313329  0.01027918  0.80702496    -0.71700
O285        O  0.24381969  0.07867205  0.80673585    -0.71600
O286        O  0.25560627  0.92230359  0.80731522    -0.71600
O287        O  0.24897077  0.92109552  0.72500900    -0.71600
O288        O  0.25015776  0.07892417  0.72445683    -0.71600
O289        O  0.29324943  0.99895378  0.72475660    -0.71500
O290        O  0.20589038  0.00086744  0.72459712    -0.71700
V291        V  0.24972797  0.00046692  0.80558917     1.35200
V292        V  0.24957405  0.99998959  0.72612473     1.35200
C293        C  0.19119321  0.99404623  0.76568785     0.77700
C294        C  0.30813461  0.00589290  0.76587989     0.77800
C295        C  0.24609794  0.10556151  0.76556887     0.77600
C296        C  0.25311143  0.89495157  0.76631247     0.77600
O297        O  0.03551916  0.71097047  0.48449646    -0.71500
O298        O  0.02940440  0.55359136  0.98910986    -0.71700
O299        O  0.03249764  0.62916545  0.91416355    -0.71600
O300        O  0.03242778  0.63395470  0.55897750    -0.71600
O301        O  0.48242201  0.63862566  0.55903085    -0.71600
O302        O  0.48271831  0.63920903  0.91378592    -0.71600
O303        O  0.47897136  0.56093554  0.48580251    -0.71500
O304        O  0.48583913  0.71755600  0.98700769    -0.71700
V305        V  0.03155192  0.63219890  0.98653836     1.35200
V306        V  0.48358157  0.63877108  0.98627508     1.35200
C307        C  0.01187803  0.74069247  0.98452250     0.77700
C308        C  0.00342642  0.53020067  0.98776713     0.77800
C309        C  0.00761654  0.63400772  0.88939103     0.77600
C310        C  0.00746829  0.63617053  0.58359628     0.77600
O311        O  0.48538912  0.71644027  0.73890604    -0.71500
O312        O  0.47974571  0.55930696  0.73472115    -0.71700
O313        O  0.48259361  0.63597194  0.80888247    -0.71600
O314        O  0.48260282  0.63983716  0.66403444    -0.71600
O315        O  0.03243599  0.63081623  0.66408854    -0.71600
O316        O  0.03262980  0.63248030  0.80900974    -0.71600
O317        O  0.02967352  0.55292183  0.73721298    -0.71500
O318        O  0.03529135  0.71039056  0.73534575    -0.71700
V319        V  0.48355700  0.63775431  0.73653729     1.35200
V320        V  0.03155017  0.63177038  0.73648523     1.35200
C321        C  0.01128000  0.74012228  0.73738462     0.77700
C322        C  0.00370952  0.52939517  0.73600850     0.77800
C323        C  0.00762890  0.63403787  0.83353028     0.77600
C324        C  0.00750587  0.63564261  0.63947350     0.77600
O325        O  0.26580019  0.71776718  0.48961969    -0.71500
O326        O  0.27223384  0.56010384  0.98759179    -0.71700
O327        O  0.26915868  0.63956911  0.91583018    -0.71600
O328        O  0.26863157  0.63814448  0.56056921    -0.71600
O329        O  0.21859540  0.63553778  0.56025402    -0.71600
O330        O  0.21933076  0.63122267  0.91527074    -0.71600
O331        O  0.22134738  0.55506081  0.48923368    -0.71500
O332        O  0.21626259  0.71156148  0.98577664    -0.71700
V333        V  0.26816699  0.63850854  0.98840219     1.35200
V334        V  0.22018740  0.63285811  0.98763841     1.35200
C335        C  0.24024207  0.74107795  0.98763704     0.77700
C336        C  0.24838404  0.53031042  0.98861994     0.77800
C337        C  0.24424366  0.63548772  0.89094967     0.77600
C338        C  0.24364151  0.63678767  0.58501138     0.77600
O339        O  0.21582807  0.71175495  0.73614880    -0.71500
O340        O  0.22220198  0.55439446  0.73895057    -0.71700
O341        O  0.21909295  0.63437739  0.81032122    -0.71600
O342        O  0.21890146  0.63178725  0.66537650    -0.71600
O343        O  0.26868769  0.64088947  0.66564882    -0.71600
O344        O  0.26911755  0.63757049  0.81057083    -0.71600
O345        O  0.27209667  0.56062405  0.73657657    -0.71500
O346        O  0.26570930  0.71782521  0.74026398    -0.71700
V347        V  0.21996453  0.63319396  0.73779246     1.35200
V348        V  0.26793170  0.63911228  0.73816926     1.35200
C349        C  0.23969401  0.74147975  0.73827205     0.77700
C350        C  0.24825090  0.53078762  0.73782158     0.77800
C351        C  0.24415216  0.63581015  0.83504688     0.77600
C352        C  0.24374761  0.63650843  0.64091201     0.77600
O353        O  0.01999996  0.28255946  0.98822926    -0.71500
O354        O  0.02404961  0.43960797  0.48606968    -0.71700
O355        O  0.02093593  0.36231585  0.55959012    -0.71600
O356        O  0.02268630  0.36027902  0.91470770    -0.71600
O357        O  0.47285824  0.36942912  0.91424548    -0.71600
O358        O  0.47090429  0.36600240  0.55935243    -0.71600
O359        O  0.47534467  0.44573406  0.98892158    -0.71500
O360        O  0.46765515  0.28945379  0.48430375    -0.71700
V361        V  0.01981337  0.36115998  0.48726561     1.35200
V362        V  0.47185637  0.36796632  0.48679791     1.35200
C363        C  0.99148862  0.25928691  0.48671566     0.77700
C364        C  0.00022533  0.46989208  0.48736504     0.77800
C365        C  0.99596409  0.36383177  0.58405777     0.77600
C366        C  0.99775354  0.36478367  0.88988160     0.77600
O367        O  0.46850069  0.28850382  0.73536468    -0.71500
O368        O  0.47526108  0.44559178  0.73813794    -0.71700
O369        O  0.47145058  0.36829037  0.66466826    -0.71600
O370        O  0.47235536  0.36603561  0.80955785    -0.71600
O371        O  0.02237374  0.36187961  0.80924301    -0.71600
O372        O  0.02120224  0.35785345  0.66435114    -0.71600
O373        O  0.02513004  0.43838519  0.73502073    -0.71500
O374        O  0.01836519  0.28110966  0.73909898    -0.71700
V375        V  0.47286115  0.36693418  0.73704700     1.35200
V376        V  0.02080940  0.35990474  0.73685063     1.35200
C377        C  0.99225014  0.25812972  0.73729590     0.77700
C378        C  0.00130618  0.46869087  0.73635495     0.77800
C379        C  0.99619364  0.36322519  0.63992328     0.77600
C380        C  0.99751493  0.36427905  0.83399509     0.77600
O381        O  0.28518849  0.28975980  0.98518091    -0.71500
O382        O  0.27571732  0.44672679  0.49007175    -0.71700
O383        O  0.27924007  0.36644641  0.56086718    -0.71600
O384        O  0.28110098  0.37069593  0.91591012    -0.71600
O385        O  0.23142505  0.35982982  0.91577035    -0.71600
O386        O  0.22921481  0.36318610  0.56095195    -0.71600
O387        O  0.22747635  0.43921011  0.98751784    -0.71500
O388        O  0.23254648  0.28301285  0.49029977    -0.71700
V389        V  0.27808882  0.36802774  0.48843043     1.35200
V390        V  0.23013465  0.36180999  0.48850520     1.35200
C391        C  0.25863913  0.25963980  0.48817596     0.77700
C392        C  0.24966518  0.47028339  0.48857623     0.77800
C393        C  0.25430131  0.36468247  0.58549583     0.77600
C394        C  0.25621379  0.36536445  0.89125725     0.77600
O395        O  0.23364350  0.28287711  0.74063360    -0.71500
O396        O  0.22697300  0.44012650  0.73740498    -0.71700
O397        O  0.22983503  0.35989348  0.66627342    -0.71600
O398        O  0.23081344  0.36320717  0.81114839    -0.71600
O399        O  0.28082140  0.36704604  0.81048785    -0.71600
O400        O  0.27962391  0.36891928  0.66561428    -0.71600
O401        O  0.27688093  0.44656349  0.73898625    -0.71500
O402        O  0.28348237  0.28918909  0.73640312    -0.71700
V403        V  0.23128555  0.36163186  0.73878902     1.35200
V404        V  0.27923978  0.36778902  0.73797042     1.35600
C405        C  0.25968319  0.25930866  0.73859944     0.77700
C406        C  0.25079711  0.47006319  0.73806237     0.77800
C407        C  0.25456189  0.36445723  0.64136002     0.77600
C408        C  0.25598119  0.36529058  0.83540001     0.77600
C409        C  0.24349148  0.16646315  0.76577336    -0.16200
C410        C  0.26235304  0.19834974  0.73809852    -0.31400
H411        H  0.22686431  0.18563211  0.79128477     0.12800
H412        H  0.28102011  0.17941774  0.71662075     0.13400
C413        C  0.25545689  0.83407434  0.76689056    -0.16200
C414        C  0.23714950  0.80235537  0.73770788    -0.31400
H415        H  0.27141288  0.81482478  0.79363902     0.12800
H416        H  0.21904863  0.82135253  0.71482786     0.13400
C417        C  0.24556425  0.16671562  0.51914229    -0.16200
C418        C  0.26150105  0.19885372  0.48707122    -0.31400
H419        H  0.22973305  0.18390696  0.03776610     0.12800
H420        H  0.27825004  0.18031313  0.46139430     0.13400
C421        C  0.25762082  0.83433037  0.51406416    -0.16200
C422        C  0.23780385  0.80299278  0.48729758    -0.31400
H423        H  0.27468211  0.81470885  0.53861999     0.12800
H424        H  0.21880046  0.82127756  0.96676610     0.13400
C425        C  0.98936225  0.19730185  0.73649973    -0.16200
C426        C  0.00599722  0.16497420  0.76791400    -0.31400
H427        H  0.47210918  0.17891506  0.71159247     0.12800
H428        H  0.02096794  0.18378531  0.79637927     0.13400
C429        C  0.99438808  0.83260077  0.76523275    -0.16200
C430        C  0.01350925  0.80104688  0.73732641    -0.31400
H431        H  0.47792429  0.81319750  0.79062835     0.12800
H432        H  0.03202142  0.82022806  0.71597007     0.13400
C433        C  0.39084595  0.01830054  0.81109080    -0.13100
C434        C  0.40718416  0.00742909  0.76596091     0.09100
C435        C  0.39067406  0.99783410  0.72057478    -0.13100
C436        C  0.35851845  0.99809325  0.72049599    -0.13100
C437        C  0.34215917  0.00797638  0.76577703     0.09100
C438        C  0.35863979  0.01859479  0.81100613    -0.13100
H439        H  0.40296438  0.02644490  0.84650043     0.13000
H440        H  0.40260402  0.98919211  0.68524402     0.13000
H441        H  0.34645825  0.98963532  0.68508242     0.13000
H442        H  0.34663760  0.02692580  0.84632027     0.13000
C443        C  0.14057612  0.00103294  0.72028368    -0.13100
C444        C  0.15720811  0.99093678  0.76544706     0.09100
C445        C  0.14103129  0.97898259  0.81042061    -0.13100
C446        C  0.10883504  0.97853492  0.81049573    -0.13100
C447        C  0.09222251  0.99001449  0.76557898     0.09100
C448        C  0.10843176  0.00058505  0.72035941    -0.13100
H449        H  0.15239073  0.01035023  0.68505114     0.13000
H450        H  0.15326119  0.97030769  0.84562222     0.13000
H451        H  0.09694773  0.96959894  0.84574304     0.13000
H452        H  0.09625919  0.00961662  0.68516704     0.13000
C453        C  0.98894503  0.19842516  0.48641417    -0.16200
C454        C  0.00638307  0.16691795  0.51737265    -0.31400
H455        H  0.47471423  0.17946874  0.95846476     0.12800
H456        H  0.02150203  0.18645649  0.54520129     0.13400
C457        C  0.01457598  0.80144829  0.98263527    -0.16200
C458        C  0.99724425  0.83418642  0.51648884    -0.31400
H459        H  0.03230727  0.81951889  0.95876471     0.12800
H460        H  0.48207968  0.81502459  0.54418871     0.13400
C461        C  0.39462413  0.99549977  0.96628603    -0.13100
C462        C  0.41098513  0.00738923  0.01136192     0.09100
C463        C  0.39322763  0.01777182  0.56105037    -0.13100
C464        C  0.36104532  0.01805261  0.56094968    -0.13100
C465        C  0.34597521  0.00712368  0.01077048     0.09100
C466        C  0.36246177  0.99536279  0.96599589    -0.13100
H467        H  0.40669670  0.98526417  0.93143483     0.13000
H468        H  0.40532402  0.02515557  0.59663208     0.13000
H469        H  0.34906591  0.02559768  0.59644097     0.13000
H470        H  0.35050313  0.98502923  0.93093252     0.13000
C471        C  0.11090513  0.00653790  0.47212368    -0.13100
C472        C  0.09603798  0.99330556  0.01256983     0.09100
C473        C  0.11219127  0.00344757  0.96720673    -0.13100
C474        C  0.14432032  0.00347541  0.96691570    -0.13100
C475        C  0.16100552  0.99333995  0.01199132     0.09100
C476        C  0.14303501  0.00623160  0.47201141    -0.13100
H477        H  0.09878990  0.01709723  0.43724220     0.13000
H478        H  0.09998770  0.01211978  0.93196833     0.13000
H479        H  0.15609760  0.01217410  0.93152196     0.13000
H480        H  0.15489772  0.01657417  0.43706920     0.13000
O481        O  0.96003134  0.00942906  0.05321562    -0.71500
O482        O  0.54701250  0.99055560  0.05386251    -0.71700
O483        O  0.00890140  0.07803139  0.05407610    -0.71600
O484        O  0.49809425  0.92185956  0.05333006    -0.71600
O485        O  0.00329187  0.92166769  0.47518563    -0.71600
O486        O  0.50085467  0.07948437  0.47560906    -0.71600
O487        O  0.54574443  0.00216283  0.47572734    -0.71500
O488        O  0.95842687  0.99919690  0.47505572    -0.71700
V489        V  0.00351515  0.99995126  0.05217604     1.35200
V490        V  0.50209280  0.00060618  0.47684921     1.35200
C491        C  0.94358079  0.00539096  0.51613014     0.77700
C492        C  0.56063011  0.99608805  0.51696593     0.77800
C493        C  0.50669192  0.10524235  0.01309439     0.77600
C494        C  0.50020859  0.89480283  0.01214891     0.77600
O495        O  0.53973992  0.98979428  0.30972696    -0.71500
O496        O  0.95266716  0.00836725  0.30945288    -0.71700
O497        O  0.49105650  0.92064126  0.30817693    -0.71600
O498        O  0.00147746  0.07729389  0.31122499    -0.71600
O499        O  0.49589221  0.07941528  0.22874608    -0.71600
O500        O  0.99673830  0.92164285  0.22577905    -0.71600
O501        O  0.95256787  0.00055733  0.22684661    -0.71500
O502        O  0.53979610  0.00064205  0.22744921    -0.71700
V503        V  0.49620598  0.99901934  0.30821748     1.35200
V504        V  0.49620895  0.00052836  0.22871276     1.35200
C505        C  0.55470439  0.99391235  0.26853562     0.77700
C506        C  0.93768021  0.00607565  0.26793171     0.77800
C507        C  0.49332260  0.89436507  0.26653069     0.77600
C508        C  0.49972094  0.10510710  0.27044738     0.77600
O509        O  0.79704162  0.00948313  0.05205047    -0.71500
O510        O  0.71029362  0.99047815  0.05274354    -0.71700
O511        O  0.75934237  0.92175969  0.05245677    -0.71600
O512        O  0.74782138  0.07797636  0.05240713    -0.71600
O513        O  0.75235917  0.08009011  0.47637184    -0.71600
O514        O  0.75118496  0.92232107  0.47381540    -0.71600
O515        O  0.70819493  0.00238442  0.47548791    -0.71500
O516        O  0.79553715  0.00021790  0.47465889    -0.71700
V517        V  0.75365433  0.99991277  0.05097955     1.35200
V518        V  0.75184632  0.00121517  0.47651340     1.35200
C519        C  0.81055595  0.00611777  0.51579173     0.77700
C520        C  0.69361338  0.99532498  0.51664581     0.77800
C521        C  0.75645425  0.89451355  0.01148151     0.77600
C522        C  0.74980325  0.10499230  0.01131204     0.77600
O523        O  0.70305814  0.99014668  0.30766931    -0.71500
O524        O  0.78971184  0.01015039  0.30722950    -0.71700
O525        O  0.74047927  0.07829464  0.30725268    -0.71600
O526        O  0.75243773  0.92188025  0.30747503    -0.71600
O527        O  0.74567781  0.92074969  0.22520293    -0.71600
O528        O  0.74660852  0.07852805  0.22492178    -0.71600
O529        O  0.78978961  0.99900735  0.22493755    -0.71500
O530        O  0.70232776  0.00041803  0.22533113    -0.71700
V531        V  0.74639378  0.00007394  0.30597535     1.35200
V532        V  0.74607567  0.99967041  0.22650743     1.35200
C533        C  0.68774894  0.99396088  0.26662130     0.77700
C534        C  0.80467492  0.00620990  0.26604601     0.77800
C535        C  0.74284083  0.10516547  0.26608422     0.77600
C536        C  0.75013731  0.89456767  0.26639716     0.77600
O537        O  0.53570738  0.71052719  0.98329968    -0.71500
O538        O  0.52887066  0.55372246  0.48791914    -0.71700
O539        O  0.53196233  0.63061930  0.41405210    -0.71600
O540        O  0.53246443  0.63498227  0.05910675    -0.71600
O541        O  0.98243434  0.63859331  0.05865551    -0.71600
O542        O  0.98216485  0.64032127  0.41411513    -0.71600
O543        O  0.97949641  0.56022122  0.98586977    -0.71500
O544        O  0.98566099  0.71817786  0.48807924    -0.71700
V545        V  0.53123298  0.63246945  0.48644226     1.35200
V546        V  0.98327481  0.63940451  0.48666337     1.35200
C547        C  0.51172944  0.74127030  0.48627527     0.77700
C548        C  0.50278851  0.53061355  0.48705596     0.77800
C549        C  0.50700240  0.63532178  0.38948285     0.77600
C550        C  0.50739856  0.63695693  0.08349340     0.77600
O551        O  0.98420062  0.71709543  0.23911538    -0.71500
O552        O  0.97970926  0.55991702  0.23430165    -0.71700
O553        O  0.98191344  0.63640334  0.30884436    -0.71600
O554        O  0.98222912  0.64067931  0.16383070    -0.71600
O555        O  0.53210425  0.63254797  0.16425565    -0.71600
O556        O  0.53196715  0.63418959  0.30912691    -0.71600
O557        O  0.52964903  0.55436056  0.23730068    -0.71500
O558        O  0.53413897  0.71230861  0.23566976    -0.71700
V559        V  0.98299285  0.63839673  0.23641804     1.35200
V560        V  0.53101249  0.63345425  0.23663801     1.35200
C561        C  0.50988956  0.74147244  0.23790251     0.77700
C562        C  0.50379972  0.53035386  0.23577463     0.77800
C563        C  0.50694396  0.63522626  0.33358395     0.77600
C564        C  0.50722926  0.63685235  0.13942776     0.77600
O565        O  0.76616028  0.71714153  0.98973142    -0.71500
O566        O  0.77127675  0.56050294  0.48719015    -0.71700
O567        O  0.76835746  0.64001667  0.41564706    -0.71600
O568        O  0.76903013  0.63769166  0.06084031    -0.71600
O569        O  0.71901062  0.63421676  0.06009201    -0.71600
O570        O  0.71851087  0.63200988  0.41532086    -0.71600
O571        O  0.72232166  0.55394986  0.98906603    -0.71500
O572        O  0.71588485  0.71267436  0.48575466    -0.71700
V573        V  0.76753739  0.63901930  0.48816381     1.35200
V574        V  0.71953892  0.63395151  0.48772850     1.35200
C575        C  0.73994092  0.74197065  0.48769667     0.77700
C576        C  0.74729043  0.53104180  0.48834043     0.77800
C577        C  0.74341603  0.63577317  0.39088728     0.77600
C578        C  0.74396050  0.63584342  0.08505246     0.77600
O579        O  0.71491590  0.71009915  0.23561720    -0.71500
O580        O  0.72235434  0.55300523  0.23882032    -0.71700
O581        O  0.71843315  0.63318605  0.31005258    -0.71600
O582        O  0.71890988  0.63005775  0.16508049    -0.71600
O583        O  0.76861344  0.64048548  0.16593523    -0.71600
O584        O  0.76843976  0.63710936  0.31074713    -0.71600
O585        O  0.77221552  0.56003812  0.23674824    -0.71500
O586        O  0.76471548  0.71738495  0.24053671    -0.71700
V587        V  0.71961689  0.63169109  0.23750052     1.35200
V588        V  0.76753490  0.63860683  0.23839685     1.35200
C589        C  0.73852215  0.74042781  0.23813091     0.77700
C590        C  0.74850524  0.52978615  0.23773571     0.77800
C591        C  0.74340185  0.63529698  0.33499627     0.77600
C592        C  0.74382608  0.63546212  0.14092034     0.77600
O593        O  0.51751336  0.28247944  0.48897137    -0.71500
O594        O  0.52528523  0.43979093  0.98674673    -0.71700
O595        O  0.52251927  0.36192959  0.05984589    -0.71600
O596        O  0.52065173  0.35964400  0.41480926    -0.71600
O597        O  0.97090451  0.37017777  0.41436069    -0.71600
O598        O  0.97247500  0.36459923  0.05897574    -0.71600
O599        O  0.97416791  0.44673611  0.48876086    -0.71500
O600        O  0.97010046  0.28846441  0.98337278    -0.71700
V601        V  0.52167237  0.36128188  0.98732149     1.35200
V602        V  0.97366934  0.36695046  0.98652681     1.35200
C603        C  0.49414704  0.25885286  0.98521357     0.77700
C604        C  0.50123345  0.46948396  0.98794773     0.77800
C605        C  0.49740546  0.36305171  0.08402636     0.77600
C606        C  0.49579655  0.36507656  0.38999074     0.77600
O607        O  0.96774411  0.28979881  0.23530285    -0.71500
O608        O  0.97529888  0.44666111  0.23686185    -0.71700
O609        O  0.97209967  0.36855363  0.16390689    -0.71600
O610        O  0.97106738  0.36782015  0.30891375    -0.71600
O611        O  0.52105155  0.36244221  0.31011360    -0.71600
O612        O  0.52182712  0.35785434  0.16525588    -0.71600
O613        O  0.52517291  0.43890919  0.23583900    -0.71500
O614        O  0.51753273  0.28152303  0.24033430    -0.71700
V615        V  0.97253145  0.36807291  0.23635451     1.35200
V616        V  0.52044359  0.36032352  0.23777392     1.35200
C617        C  0.49128424  0.25903317  0.23817683     0.77700
C618        C  0.50143150  0.46952381  0.23609000     0.77800
C619        C  0.49712148  0.36302208  0.13996632     0.77600
C620        C  0.49593457  0.36521483  0.33410646     0.77600
O621        O  0.78238918  0.28959026  0.48621487    -0.71500
O622        O  0.77731557  0.44662996  0.99074044    -0.71700
O623        O  0.78125977  0.36554767  0.06100476    -0.71600
O624        O  0.77892775  0.36978544  0.41613946    -0.71600
O625        O  0.72917448  0.36012311  0.41588629    -0.71600
O626        O  0.73126741  0.36127591  0.06052489    -0.71600
O627        O  0.72582250  0.44038596  0.48717569    -0.71500
O628        O  0.73539378  0.28203335  0.98900279    -0.71700
V629        V  0.78026227  0.36803853  0.98834614     1.35200
V630        V  0.73236078  0.36073020  0.98818050     1.35200
C631        C  0.76164072  0.25925605  0.98645942     0.77700
C632        C  0.75111187  0.46961564  0.98907457     0.77800
C633        C  0.75620919  0.36309895  0.08539103     0.77600
C634        C  0.75406961  0.36487115  0.39141630     0.77600
O635        O  0.73290617  0.28217215  0.24006536    -0.71500
O636        O  0.72718490  0.43932423  0.23635896    -0.71700
O637        O  0.73078481  0.35895701  0.16537314    -0.71600
O638        O  0.72946283  0.36252756  0.31036266    -0.71600
O639        O  0.77947734  0.36604338  0.31150240    -0.71600
O640        O  0.78063840  0.36667048  0.16658056    -0.71600
O641        O  0.77709102  0.44517070  0.23938776    -0.71500
O642        O  0.78284517  0.28745536  0.23831241    -0.71700
V643        V  0.73106812  0.36084989  0.23794980     1.35200
V644        V  0.77905567  0.36620781  0.23899940     1.35600
C645        C  0.75880912  0.25808325  0.23964554     0.77700
C646        C  0.75109239  0.46900067  0.23777146     0.77800
C647        C  0.75589585  0.36276520  0.14135344     0.77600
C648        C  0.75430864  0.36450572  0.33552697     0.77600
C649        C  0.74091077  0.16608292  0.26621106    -0.16200
C650        C  0.76097673  0.19709559  0.24002223    -0.31400
H651        H  0.72373098  0.18590142  0.29025777     0.12800
H652        H  0.78004838  0.17736066  0.22018125     0.13400
C653        C  0.75326778  0.83372930  0.26675082    -0.16200
C654        C  0.73538232  0.80127890  0.23752457    -0.31400
H655        H  0.76951271  0.81507393  0.29337532     0.12800
H656        H  0.71701621  0.81961381  0.21476752     0.13400
C657        C  0.74646148  0.16566174  0.01189953    -0.16200
C658        C  0.76487612  0.19851616  0.98452232    -0.31400
H659        H  0.73115389  0.18563035  0.54827558     0.12800
H660        H  0.78368519  0.18062593  0.96266026     0.13400
C661        C  0.75838432  0.83364048  0.01211719    -0.16200
C662        C  0.73803689  0.80205099  0.98676806    -0.31400
H663        H  0.77576348  0.81433108  0.03627223     0.12800
H664        H  0.71879276  0.82243123  0.46689839     0.13400
C665        C  0.48795640  0.19832392  0.23780441    -0.16200
C666        C  0.50277594  0.16597285  0.27158221    -0.31400
H667        H  0.97174926  0.18007233  0.21095890     0.12800
H668        H  0.51661548  0.18469798  0.30163462     0.13400
C669        C  0.49166141  0.83336870  0.26572713    -0.16200
C670        C  0.51156849  0.80255359  0.23852032    -0.31400
H671        H  0.97492745  0.81327190  0.29017609     0.12800
H672        H  0.53026228  0.82249525  0.21822226     0.13400
C673        C  0.88710281  0.02038853  0.31195661    -0.13100
C674        C  0.90366123  0.00899123  0.26717171     0.09100
C675        C  0.88738530  0.99922771  0.22154575    -0.13100
C676        C  0.85522817  0.99927435  0.22102304    -0.13100
C677        C  0.83866117  0.00914849  0.26608290     0.09100
C678        C  0.85490746  0.02050694  0.31141828    -0.13100
H679        H  0.89903379  0.02885962  0.34748664     0.13000
H680        H  0.89949030  0.99054243  0.18636428     0.13000
H681        H  0.84334861  0.99060988  0.18545379     0.13000
H682        H  0.84273347  0.02900470  0.34655525     0.13000
C683        C  0.63691160  0.99875543  0.22153035    -0.13100
C684        C  0.65372469  0.99174821  0.26699960     0.09100
C685        C  0.63769714  0.98387701  0.31292126    -0.13100
C686        C  0.60549999  0.98386820  0.31347658    -0.13100
C687        C  0.58872071  0.99174447  0.26809064     0.09100
C688        C  0.60476613  0.99875256  0.22208828    -0.13100
H689        H  0.64857914  0.00493797  0.18558419     0.13000
H690        H  0.65004743  0.97806311  0.34852532     0.13000
H691        H  0.59375515  0.97804929  0.34939822     0.13000
H692        H  0.59246645  0.00492607  0.18646966     0.13000
C693        C  0.49195022  0.19807595  0.98327440    -0.16200
C694        C  0.50915652  0.16602502  0.01397336    -0.31400
H695        H  0.97156983  0.17933610  0.46220157     0.12800
H696        H  0.52408103  0.18500480  0.04242747     0.13400
C697        C  0.51442642  0.80216293  0.48570651    -0.16200
C698        C  0.49727147  0.83406502  0.01255284    -0.31400
H699        H  0.53186618  0.82083264  0.46164923     0.12800
H700        H  0.98183046  0.81552748  0.04019209     0.13400
C701        C  0.89309071  0.99898896  0.47022177    -0.13100
C702        C  0.90956835  0.00771585  0.51578348     0.09100
C703        C  0.89452157  0.01973245  0.05604113    -0.13100
C704        C  0.86232837  0.01962425  0.05575157    -0.13100
C705        C  0.84457026  0.00829309  0.51556024     0.09100
C706        C  0.86092630  0.99929814  0.47011188    -0.13100
H707        H  0.90505912  0.99103271  0.43478580     0.13000
H708        H  0.90651509  0.02917598  0.09132023     0.13000
H709        H  0.85025330  0.02899477  0.09082479     0.13000
H710        H  0.84886680  0.99153027  0.43456750     0.13000
C711        C  0.61269942  0.98292310  0.05769488    -0.13100
C712        C  0.59464342  0.99436342  0.51692228     0.09100
C713        C  0.61118963  0.98135069  0.56157227    -0.13100
C714        C  0.64339389  0.98103261  0.56145826    -0.13100
C715        C  0.65961547  0.99374699  0.51671423     0.09100
C716        C  0.64489591  0.98291974  0.05739359    -0.13100
H717        H  0.60087118  0.97496012  0.09320424     0.13000
H718        H  0.59925275  0.97141611  0.59653680     0.13000
H719        H  0.65559415  0.97092872  0.59638319     0.13000
H720        H  0.65717522  0.97493814  0.09270987     0.13000
O721        O  0.95861370  0.00910820  0.55747993    -0.71500
O722        O  0.54563233  0.99201658  0.55808882    -0.71700
O723        O  0.00687562  0.07892091  0.55803907    -0.71600
O724        O  0.49729786  0.92216414  0.55752808    -0.71600
O725        O  0.00427012  0.92116425  0.97099517    -0.71600
O726        O  0.50275625  0.07903668  0.97168124    -0.71600
O727        O  0.54714212  0.00103771  0.97153860    -0.71500
O728        O  0.95987322  0.99926525  0.97081438    -0.71700
V729        V  0.00211029  0.00053972  0.55635020     1.35200
V730        V  0.50352049  0.00011693  0.97269775     1.35200
C731        C  0.94500899  0.00552227  0.01184840     0.77700
C732        C  0.56202072  0.99478916  0.01274063     0.77800
C733        C  0.50443509  0.10597761  0.51692939     0.77600
C734        C  0.49959897  0.89512969  0.51630986     0.77600
O735        O  0.54330024  0.98849897  0.80716543    -0.71500
O736        O  0.95638643  0.00833227  0.80744201    -0.71700
O737        O  0.49430516  0.92026293  0.80670354    -0.71600
O738        O  0.00544836  0.07664543  0.80804015    -0.71600
O739        O  0.49904146  0.07800950  0.72570019    -0.71600
O740        O  0.00028555  0.92017049  0.72435137    -0.71600
O741        O  0.95594133  0.99863771  0.72500092    -0.71500
O742        O  0.54325702  0.99948534  0.72489877    -0.71700
V743        V  0.49984536  0.99845374  0.80591389     1.35200
V744        V  0.49961669  0.99907082  0.72643272     1.35200
C745        C  0.55821353  0.99249660  0.76593151     0.77700
C746        C  0.94121753  0.00491531  0.76618632     0.77800
C747        C  0.49654902  0.89347515  0.76535718     0.77600
C748        C  0.50319710  0.10408836  0.76711798     0.77600
O749        O  0.79569796  0.00940521  0.55715185    -0.71500
O750        O  0.70889559  0.99042606  0.55763913    -0.71700
O751        O  0.75800196  0.92166715  0.55608393    -0.71600
O752        O  0.74654525  0.07811935  0.55873365    -0.71600
O753        O  0.75400284  0.07862764  0.97008202    -0.71600
O754        O  0.75228818  0.92075578  0.97023412    -0.71600
O755        O  0.70957194  0.00127137  0.97045085    -0.71500
O756        O  0.79697022  0.99813619  0.96978050    -0.71700
V757        V  0.75229387  0.99991316  0.55597908     1.35200
V758        V  0.75324903  0.99968447  0.97151663     1.35200
C759        C  0.81195165  0.00502486  0.01083955     0.77700
C760        C  0.69499907  0.99487443  0.01172961     0.77800
C761        C  0.75537144  0.89523928  0.51458590     0.77600
C762        C  0.74843593  0.10585333  0.51798629     0.77600
O763        O  0.70634911  0.99050872  0.80693233    -0.71500
O764        O  0.79313277  0.01027532  0.80702663    -0.71700
O765        O  0.74381917  0.07866841  0.80673495    -0.71600
O766        O  0.75560584  0.92229990  0.80731445    -0.71600
O767        O  0.74897134  0.92109222  0.72500801    -0.71600
O768        O  0.75015906  0.07892069  0.72445635    -0.71600
O769        O  0.79325040  0.99894941  0.72475834    -0.71500
O770        O  0.70589119  0.00086498  0.72459443    -0.71700
V771        V  0.74972749  0.00046323  0.80558848     1.35200
V772        V  0.74957495  0.99998617  0.72612409     1.35200
C773        C  0.69119334  0.99404386  0.76568456     0.77700
C774        C  0.80813486  0.00588829  0.76588245     0.77800
C775        C  0.74609824  0.10555798  0.76556816     0.77600
C776        C  0.75311162  0.89494811  0.76631149     0.77600
O777        O  0.53552115  0.71097034  0.48449340    -0.71500
O778        O  0.52940381  0.55358818  0.98910488    -0.71700
O779        O  0.53249806  0.62916552  0.91416118    -0.71600
O780        O  0.53243015  0.63395394  0.55897417    -0.71600
O781        O  0.98241966  0.63862781  0.55903381    -0.71600
O782        O  0.98271781  0.63920782  0.91378886    -0.71600
O783        O  0.97896925  0.56093564  0.48580696    -0.71500
O784        O  0.98583867  0.71755817  0.98700684    -0.71700
V785        V  0.53155186  0.63219586  0.98653609     1.35200
V786        V  0.98358159  0.63877325  0.98627789     1.35200
C787        C  0.51187867  0.74069004  0.98452577     0.77700
C788        C  0.50342573  0.53019783  0.98776154     0.77800
C789        C  0.50761717  0.63400930  0.88938832     0.77600
C790        C  0.50747069  0.63616872  0.58359315     0.77600
O791        O  0.98538764  0.71643990  0.73891272    -0.71500
O792        O  0.97974395  0.55930673  0.73472150    -0.71700
O793        O  0.98259239  0.63596845  0.80888579    -0.71600
O794        O  0.98260074  0.63984009  0.66403794    -0.71600
O795        O  0.53243821  0.63081601  0.66408593    -0.71600
O796        O  0.53263097  0.63248163  0.80900732    -0.71600
O797        O  0.52967530  0.55292234  0.73721136    -0.71500
O798        O  0.53529293  0.71039121  0.73534236    -0.71700
V799        V  0.98355534  0.63775400  0.73654073     1.35200
V800        V  0.53155185  0.63177095  0.73648271     1.35200
C801        C  0.51128144  0.74012282  0.73737876     0.77700
C802        C  0.50371132  0.52939552  0.73600828     0.77800
C803        C  0.50762993  0.63404041  0.83352746     0.77600
C804        C  0.50750815  0.63564073  0.63947042     0.77600
O805        O  0.76580032  0.71776765  0.48962227    -0.71500
O806        O  0.77223405  0.56010351  0.98758840    -0.71700
O807        O  0.76915870  0.63957125  0.91582943    -0.71600
O808        O  0.76863121  0.63814197  0.56056872    -0.71600
O809        O  0.71859501  0.63553646  0.56025341    -0.71600
O810        O  0.71933087  0.63122327  0.91527000    -0.71600
O811        O  0.72134664  0.55506188  0.48923080    -0.71500
O812        O  0.71626268  0.71156144  0.98577731    -0.71700
V813        V  0.76816712  0.63850839  0.98840142     1.35200
V814        V  0.72018755  0.63285788  0.98763764     1.35200
C815        C  0.74024211  0.74107797  0.98764016     0.77700
C816        C  0.74838427  0.53030994  0.98861629     0.77800
C817        C  0.74424374  0.63548875  0.89094894     0.77600
C818        C  0.74364114  0.63678493  0.58501080     0.77600
O819        O  0.71582844  0.71175239  0.73614737    -0.71500
O820        O  0.72220146  0.55439188  0.73895088    -0.71700
O821        O  0.71909302  0.63437615  0.81032063    -0.71600
O822        O  0.71890121  0.63178390  0.66537599    -0.71600
O823        O  0.76868752  0.64088488  0.66564802    -0.71600
O824        O  0.76911763  0.63756868  0.81057002    -0.71600
O825        O  0.77209617  0.56062048  0.73657687    -0.71500
O826        O  0.76570974  0.71782183  0.74026196    -0.71700
V827        V  0.71996446  0.63319144  0.73779192     1.35200
V828        V  0.76793167  0.63910888  0.73816844     1.35200
C829        C  0.73969455  0.74147675  0.73827004     0.77700
C830        C  0.74825023  0.53078450  0.73782200     0.77800
C831        C  0.74415225  0.63580958  0.83504618     0.77600
C832        C  0.74374735  0.63650458  0.64091138     0.77600
O833        O  0.52000029  0.28255632  0.98823261    -0.71500
O834        O  0.52405098  0.43960698  0.48606608    -0.71700
O835        O  0.52093726  0.36231701  0.55958853    -0.71600
O836        O  0.52268680  0.36027328  0.91470753    -0.71600
O837        O  0.97285779  0.36943586  0.91424706    -0.71600
O838        O  0.97090292  0.36599952  0.55935272    -0.71600
O839        O  0.97534538  0.44573749  0.98892614    -0.71500
O840        O  0.96765558  0.28945293  0.48430189    -0.71700
V841        V  0.51981383  0.36115909  0.48726407     1.35200
V842        V  0.97185583  0.36796549  0.48679820     1.35200
C843        C  0.49148786  0.25928691  0.48671779     0.77700
C844        C  0.50022701  0.46989191  0.48736151     0.77800
C845        C  0.49596568  0.36383430  0.58405682     0.77600
C846        C  0.49775429  0.36477777  0.88988070     0.77600
O847        O  0.96849880  0.28850345  0.73536831    -0.71500
O848        O  0.97525925  0.44559153  0.73813697    -0.71700
O849        O  0.97144859  0.36828766  0.66466922    -0.71600
O850        O  0.97235387  0.36603829  0.80955917    -0.71600
O851        O  0.52237524  0.36187768  0.80924230    -0.71600
O852        O  0.52120420  0.35785560  0.66435005    -0.71600
O853        O  0.52513187  0.43838555  0.73502133    -0.71500
O854        O  0.51836707  0.28111004  0.73909623    -0.71700
V855        V  0.97285933  0.36693394  0.73704818     1.35200
V856        V  0.52081122  0.35990505  0.73684969     1.35200
C857        C  0.49225205  0.25813017  0.73729196     0.77700
C858        C  0.50130800  0.46869120  0.73635571     0.77800
C859        C  0.49619558  0.36322795  0.63992227     0.77600
C860        C  0.49751625  0.36427532  0.83399412     0.77600
O861        O  0.78518755  0.28975770  0.98518193    -0.71500
O862        O  0.77571623  0.44672719  0.49007022    -0.71700
O863        O  0.77923850  0.36644626  0.56086538    -0.71600
O864        O  0.78110010  0.37069115  0.91590771    -0.71600
O865        O  0.73142419  0.35982503  0.91576912    -0.71600
O866        O  0.72921320  0.36318795  0.56094946    -0.71600
O867        O  0.72747639  0.43920954  0.98751331    -0.71500
O868        O  0.73254533  0.28301320  0.49029903    -0.71700
V869        V  0.77808768  0.36802810  0.48842868     1.35200
V870        V  0.73013353  0.36181047  0.48850275     1.35200
C871        C  0.75863796  0.25963997  0.48817553     0.77700
C872        C  0.74966415  0.47028394  0.48857316     0.77800
C873        C  0.75429959  0.36468309  0.58549369     0.77600
C874        C  0.75621276  0.36535896  0.89125537     0.77600
O875        O  0.73364130  0.28287398  0.74062974    -0.71500
O876        O  0.72697175  0.44012373  0.73740474    -0.71700
O877        O  0.72983314  0.35989266  0.66627124    -0.71600
O878        O  0.73081195  0.36320225  0.81114655    -0.71600
O879        O  0.78081992  0.36704017  0.81048556    -0.71600
O880        O  0.77962208  0.36891753  0.66561215    -0.71600
O881        O  0.77687972  0.44655971  0.73898583    -0.71500
O882        O  0.78348019  0.28918526  0.73639888    -0.71700
V883        V  0.73128383  0.36162892  0.73878699     1.35200
V884        V  0.77923809  0.36778520  0.73796818     1.35600
C885        C  0.75968088  0.25930517  0.73859479     0.77700
C886        C  0.75079605  0.47005997  0.73806244     0.77800
C887        C  0.75456001  0.36445669  0.64135786     0.77600
C888        C  0.75597981  0.36528477  0.83539800     0.77600
C889        C  0.74349159  0.16645966  0.76577253    -0.16200
C890        C  0.76235049  0.19834629  0.73809285    -0.31400
H891        H  0.72686653  0.18562886  0.79128783     0.12800
H892        H  0.78101588  0.17941432  0.71661075     0.13400
C893        C  0.75545720  0.83407101  0.76688919    -0.16200
C894        C  0.73715036  0.80235225  0.73770561    -0.31400
H895        H  0.77141287  0.81482118  0.79363841     0.12800
H896        H  0.71904972  0.82134967  0.71482483     0.13400
C897        C  0.74556332  0.16671627  0.51914501    -0.16200
C898        C  0.76149990  0.19885366  0.48707284    -0.31400
H899        H  0.72973984  0.18390973  0.03779114     0.12800
H900        H  0.77824889  0.18031220  0.46139627     0.13400
C901        C  0.75762084  0.83433030  0.51407220    -0.16200
C902        C  0.73780440  0.80299380  0.48730330    -0.31400
H903        H  0.77468130  0.81470798  0.53862899     0.12800
H904        H  0.71880231  0.82127931  0.96676990     0.13400
C905        C  0.48936428  0.19730250  0.73649417    -0.16200
C906        C  0.50599672  0.16497465  0.76791188    -0.31400
H907        H  0.97210504  0.17891400  0.71160223     0.12800
H908        H  0.52096510  0.18378547  0.79638063     0.13400
C909        C  0.49438731  0.83260166  0.76522169    -0.16200
C910        C  0.51351047  0.80104752  0.73731933    -0.31400
H911        H  0.97792672  0.81319648  0.79064227     0.12800
H912        H  0.53202407  0.82022849  0.71596625     0.13400
C913        C  0.89084562  0.01829722  0.81109673    -0.13100
C914        C  0.90718440  0.00742533  0.76596752     0.09100
C915        C  0.89067490  0.99782783  0.72058129    -0.13100
C916        C  0.85851936  0.99808613  0.72050144    -0.13100
C917        C  0.84215944  0.00797082  0.76578145     0.09100
C918        C  0.85863942  0.01859035  0.81101104    -0.13100
H919        H  0.90296363  0.02644327  0.84650632     0.13000
H920        H  0.90260532  0.98918467  0.68525124     0.13000
H921        H  0.84645964  0.98962643  0.68508777     0.13000
H922        H  0.84663673  0.02692189  0.84632465     0.13000
C923        C  0.64057655  0.00103481  0.72027954    -0.13100
C924        C  0.65720813  0.99093611  0.76544285     0.09100
C925        C  0.64103082  0.97898170  0.81041596    -0.13100
C926        C  0.60883455  0.97853495  0.81049027    -0.13100
C927        C  0.59222241  0.99001571  0.76557336     0.09100
C928        C  0.60843213  0.00058791  0.72035456    -0.13100
H929        H  0.65239156  0.01035330  0.68504763     0.13000
H930        H  0.65326024  0.97030640  0.84561782     0.13000
H931        H  0.59694690  0.96959903  0.84573753     0.13000
H932        H  0.59625990  0.00962131  0.68516232     0.13000
C933        C  0.48894358  0.19842511  0.48641767    -0.16200
C934        C  0.50638365  0.16691729  0.51737260    -0.31400
H935        H  0.97470978  0.17947500  0.95846214     0.12800
H936        H  0.52150458  0.18645524  0.54519863     0.13400
C937        C  0.51457699  0.80144605  0.98264362    -0.16200
C938        C  0.49724368  0.83418597  0.51648384    -0.31400
H939        H  0.53230796  0.81951852  0.95877335     0.12800
H940        H  0.98208212  0.81502515  0.54419660     0.13400
C941        C  0.89462183  0.99549812  0.96628644    -0.13100
C942        C  0.91098513  0.00739258  0.01135887     0.09100
C943        C  0.89322794  0.01776188  0.56105945    -0.13100
C944        C  0.86104560  0.01804348  0.56095927    -0.13100
C945        C  0.84597517  0.00712344  0.01077760     0.09100
C946        C  0.86245947  0.99535967  0.96600131    -0.13100
H947        H  0.90669261  0.98525953  0.93143442     0.13000
H948        H  0.90532461  0.02513634  0.59664233     0.13000
H949        H  0.84906637  0.02557987  0.59645246     0.13000
H950        H  0.85049906  0.98502258  0.93094036     0.13000
C951        C  0.61090571  0.00652636  0.47212347    -0.13100
C952        C  0.59603797  0.99330028  0.01259323     0.09100
C953        C  0.61219151  0.00342995  0.96722809    -0.13100
C954        C  0.64432041  0.00345856  0.96693732    -0.13100
C955        C  0.66100553  0.99333615  0.01201552     0.09100
C956        C  0.64303558  0.00621987  0.47201230    -0.13100
H957        H  0.59879101  0.01708326  0.43724101     0.13000
H958        H  0.59998818  0.01209158  0.93198694     0.13000
H959        H  0.65609752  0.01214702  0.93154143     0.13000
H960        H  0.65489869  0.01655988  0.43706975     0.13000
loop_ 
_geom_bond_atom_site_label_1 
_geom_bond_atom_site_label_2 
_geom_bond_distance 
_geom_bond_site_symmetry_2 
_ccdc_geom_bond_type 
O1            V9   1.902   1_545  S
O1          C251   1.266       .  A
O2          V489   1.902       .  S
O2          C252   1.266       .  A
O3            V9   1.898   1_545  S
O3          C493   1.263       .  A
O4          V489   1.899   1_655  S
O4           C14   1.263   1_655  A
O5          V490   1.904   1_565  S
O5          C734   1.265       .  A
O6           V10   1.903       .  S
O6          C253   1.265       .  A
O7           V10   1.897       .  S
O7           C12   1.265   1_545  A
O8          V490   1.897   1_565  S
O8           C11   1.265   1_565  A
V9          O482   1.902       .  S
V9          O484   1.899       .  S
V9          V730   2.082   1_564  T
V10         O485   1.904   1_545  S
V10         O488   1.897   1_445  S
V10         V729   2.082       .  T
C11         O241   1.265       .  A
C11         C222   1.478       .  S
C12         O242   1.265       .  A
C12         C232   1.478       .  S
C13         O483   1.263       .  A
C13         O246   1.265   1_554  A
C13         C214   1.470       .  S
C14         O725   1.266   1_554  A
C14         C218   1.470   1_455  S
O15          V23   1.903   1_455  S
O15          C25   1.266       .  A
O16         V503   1.904   1_545  S
O16          C26   1.266       .  A
O17          V23   1.904       .  S
O17          C27   1.264       .  A
O18         V503   1.903   1_545  S
O18         C508   1.264       .  A
O19          V24   1.902       .  S
O19          C28   1.265       .  A
O20         V504   1.903   1_565  S
O20         C507   1.265       .  A
O21         V504   1.896       .  S
O21          C26   1.264       .  A
O22          V24   1.893   1_455  S
O22          C25   1.264   1_545  A
V23         O496   1.904   1_565  S
V23         O498   1.903   1_665  S
V23          V24   2.083   1_565  T
V24         O500   1.903   1_545  S
V24         O501   1.896       .  S
C25         C207   1.478       .  S
C26         C194   1.479       .  S
C27         O500   1.265       .  A
C27         C189   1.473       .  S
C28         O498   1.264   1_655  A
C28         C186   1.474   1_655  S
O29          V37   1.899   1_545  S
O29         C279   1.265       .  A
O30          V37   1.899       .  S
O30         C280   1.265       .  A
O31          V37   1.900       .  S
O31          C41   1.263       .  A
O32          V37   1.898   1_545  S
O32          C42   1.263       .  A
O33          V38   1.902       .  S
O33         C282   1.265       .  A
O34          V38   1.904   1_565  S
O34         C281   1.265       .  A
O35          V38   1.896       .  S
O35          C40   1.265   1_545  A
O36          V38   1.898       .  S
O36          C39   1.265       .  A
V37         V278   2.081   1_554  T
V38         V277   2.082   1_545  T
C39         O269   1.265       .  A
C39         C225   1.478       .  S
C40         O270   1.265       .  A
C40         C235   1.477       .  S
C41         O274   1.265   1_554  A
C41         C181   1.470       .  S
C42         O273   1.265   1_554  A
C42         C177   1.469       .  S
O43          V51   1.899   1_565  S
O43          C53   1.265       .  A
O44          V51   1.898       .  S
O44          C54   1.265       .  A
O45          V51   1.902       .  S
O45          C55   1.264       .  A
O46          V51   1.903   1_565  S
O46          C56   1.264       .  A
O47          V52   1.903       .  S
O47          C56   1.265       .  A
O48          V52   1.902   1_545  S
O48          C55   1.265       .  A
O49          V52   1.899       .  S
O49          C54   1.266   1_565  A
O50          V52   1.900   1_545  S
O50          C53   1.266   1_545  A
V51          V52   2.082   1_545  T
C53         C204   1.479       .  S
C54         C197   1.478       .  S
C55         C169   1.471       .  S
C56         C173   1.472       .  S
O57         V305   1.900       .  S
O57         C307   1.263       .  A
O58          V65   1.902       .  S
O58          C68   1.265       .  A
O59          V65   1.897       .  S
O59          C69   1.263       .  A
O60         V305   1.902   1_554  S
O60          C70   1.265       .  A
O61         V306   1.897   1_554  S
O61         C550   1.263       .  A
O62          V66   1.901       .  S
O62         C549   1.264       .  A
O63         V306   1.903       .  S
O63         C788   1.265       .  A
O64          V66   1.903       .  S
O64         C547   1.265       .  A
V65         O297   1.903       .  S
V65         O300   1.901       .  S
V65         V546   2.089   1_455  T
V66         O301   1.896       .  S
V66         O303   1.902       .  S
V66         V545   2.089       .  T
C67         O297   1.264       .  A
C67         O544   1.265   1_455  A
C67         C217   1.473       .  S
C68         O783   1.264   1_455  A
C68         C364   1.469       .  S
C69         O542   1.264   1_455  A
C69          C83   1.464       .  S
C70         O541   1.263   1_455  A
C70          C84   1.465       .  S
O71          V79   1.899       .  S
O71         C561   1.264       .  A
O72          V79   1.899       .  S
O72         C562   1.264       .  A
O73          V79   1.899       .  S
O73         C563   1.263       .  A
O74          V79   1.902       .  S
O74         C564   1.265       .  A
O75          V80   1.897       .  S
O75          C84   1.263       .  A
O76          V80   1.899       .  S
O76          C83   1.264       .  A
O77          V80   1.908       .  S
O77          C82   1.266       .  A
O78          V80   1.907       .  S
O78          C81   1.265       .  A
V79         V560   2.088       .  T
V80         V559   2.088   1_455  T
C81         O551   1.264   1_455  A
C81         C190   1.475       .  S
C82         O552   1.264   1_455  A
C82         C138   1.471       .  S
C83         O553   1.263   1_455  A
C84         O554   1.265   1_455  A
O85         V333   1.898       .  S
O85         C335   1.264       .  A
O86          V93   1.899       .  S
O86          C96   1.264       .  A
O87          V93   1.900       .  S
O87          C97   1.265       .  A
O88         V333   1.898   1_554  S
O88          C98   1.263       .  A
O89         V334   1.899   1_554  S
O89          C98   1.264       .  A
O90          V94   1.897       .  S
O90          C97   1.263       .  A
O91         V334   1.905       .  S
O91         C336   1.265       .  A
O92          V94   1.905       .  S
O92          C95   1.264       .  A
V93         O325   1.900       .  S
V93         O328   1.897       .  S
V93          V94   2.089       .  T
V94         O329   1.901       .  S
V94         O331   1.904       .  S
C95         O325   1.264       .  A
C95         C422   1.474       .  S
C96         O331   1.265       .  A
C96         C392   1.468       .  S
C97         C111   1.464       .  S
C98         C112   1.463       .  S
O99         V107   1.901       .  S
O99         C109   1.263       .  A
O100        V107   1.901       .  S
O100        C110   1.264       .  A
O101        V107   1.902       .  S
O101        C111   1.265       .  A
O102        V107   1.897       .  S
O102        C112   1.263       .  A
O103        V108   1.899       .  S
O103        C112   1.264       .  A
O104        V108   1.896       .  S
O104        C111   1.263       .  A
O105        V108   1.905       .  S
O105        C110   1.265       .  A
O106        V108   1.903       .  S
O106        C109   1.265       .  A
V107        V108   2.088       .  T
C109        C174   1.473       .  S
C110        C166   1.469       .  S
O113        V361   1.901       .  S
O113        C363   1.264   1_455  A
O114        V121   1.900       .  S
O114        C124   1.264       .  A
O115        V121   1.900   1_554  S
O115        C125   1.264   1_455  A
O116        V361   1.899       .  S
O116        C126   1.264   1_455  A
O117        V362   1.899       .  S
O117        C606   1.263       .  A
O118        V122   1.900   1_554  S
O118        C605   1.264       .  A
O119        V362   1.903       .  S
O119        C844   1.265       .  A
O120        V122   1.901       .  S
O120        C603   1.263       .  A
V121        O353   1.900       .  S
V121        O356   1.903       .  S
V121        V602   2.089   1_455  T
V122        O357   1.895       .  S
V122        O359   1.902       .  S
V122        V601   2.089       .  T
C123        O353   1.264   1_655  A
C123        O600   1.263       .  A
C123        C213   1.470       .  S
C124        O839   1.264   1_455  A
C124        C308   1.467       .  S
C125        O598   1.264       .  A
C125        C139   1.465       .  S
C126        O597   1.263       .  A
C126        C140   1.464       .  S
O127        V135   1.900       .  S
O127        C617   1.263       .  A
O128        V135   1.899       .  S
O128        C618   1.264       .  A
O129        V135   1.898       .  S
O129        C619   1.263       .  A
O130        V135   1.902       .  S
O130        C620   1.265       .  A
O131        V136   1.895       .  S
O131        C140   1.263   1_455  A
O132        V136   1.901       .  S
O132        C139   1.264   1_455  A
O133        V136   1.907       .  S
O133        C138   1.265       .  A
O134        V136   1.906       .  S
O134        C137   1.265   1_455  A
V135        V616   2.089       .  T
V136        V615   2.089   1_455  T
C137        O607   1.263       .  A
C137        C185   1.471       .  S
C138        O608   1.264   1_455  A
C139        O609   1.263       .  A
C140        O610   1.265       .  A
O141        V389   1.900       .  S
O141        C391   1.263       .  A
O142        V149   1.899       .  S
O142        C152   1.264       .  A
O143        V149   1.905   1_554  S
O143        C153   1.266       .  A
O144        V389   1.895       .  S
O144        C154   1.262       .  A
O145        V390   1.903       .  S
O145        C154   1.265       .  A
O146        V150   1.896   1_554  S
O146        C153   1.262       .  A
O147        V390   1.903       .  S
O147        C392   1.265       .  A
O148        V150   1.901       .  S
O148        C151   1.265       .  A
V149        O381   1.900       .  S
V149        O384   1.899       .  S
V149        V150   2.089       .  T
V150        O385   1.897       .  S
V150        O387   1.903       .  S
C151        O381   1.263       .  A
C151        C178   1.471       .  S
C152        O387   1.264       .  A
C152        C336   1.468       .  S
C153        C167   1.466       .  S
C154        C168   1.464       .  S
O155        V163   1.899       .  S
O155        C165   1.264       .  A
O156        V163   1.899       .  S
O156        C166   1.264       .  A
O157        V163   1.901       .  S
O157        C167   1.265       .  A
O158        V163   1.899       .  S
O158        C168   1.263       .  A
O159        V164   1.899       .  S
O159        C168   1.264       .  A
O160        V164   1.898       .  S
O160        C167   1.263       .  A
O161        V164   1.905       .  S
O161        C166   1.265       .  A
O162        V164   1.905       .  S
O162        C165   1.265       .  A
V163        V164   2.089       .  T
C165        C170   1.473       .  S
C169        C170   1.342       .  D
C169        H171   1.087       .  S
C170        H172   1.087       .  S
C173        C174   1.341       .  D
C173        H175   1.087       .  S
C174        H176   1.087       .  S
C177        C178   1.339   1_554  D
C177        H419   1.087       .  S
C178        H180   1.087       .  S
H179        C417   1.087       .  S
C181        C182   1.342   1_554  D
C181        H183   1.087       .  S
C182        C335   1.473       .  S
C182        H424   1.087       .  S
H184        C422   1.087       .  S
C185        C186   1.341   1_655  D
C185        H667   1.087       .  S
C186        H188   1.087       .  S
H187        C665   1.087       .  S
C189        C190   1.343   1_655  D
C189        H671   1.087       .  S
C190        H192   1.087       .  S
H191        C669   1.087       .  S
C193        C194   1.405       .  A
C193        C198   1.398       .  A
C193        H199   1.083       .  S
C194        C195   1.406   1_545  A
C195        C196   1.397       .  A
C195        H200   1.082       .  S
C196        C197   1.404   1_565  A
C196        H201   1.083       .  S
C197        C198   1.406       .  A
C198        H202   1.082       .  S
C203        C204   1.404       .  A
C203        C208   1.396       .  A
C203        H209   1.082   1_565  S
C204        C205   1.406       .  A
C205        C206   1.398       .  A
C205        H210   1.083       .  S
C206        C207   1.405       .  A
C206        H211   1.082       .  S
C207        C208   1.405       .  A
C208        H212   1.083   1_565  S
C213        C214   1.340   1_656  D
C213        H935   1.087       .  S
C214        H216   1.087       .  S
H215        C933   1.087       .  S
C217        C458   1.342   1_455  D
C217        H219   1.087       .  S
C218        C457   1.339   1_654  D
C218        H700   1.087       .  S
H220        C698   1.087       .  S
C221        C222   1.405   1_565  A
C221        C226   1.397       .  A
C221        H227   1.082       .  S
C222        C463   1.405       .  A
C223        C224   1.398       .  A
C223        C462   1.405       .  A
C223        H228   1.083       .  S
C224        C465   1.406       .  A
C224        H229   1.083       .  S
C225        C226   1.405   1_545  A
C225        C464   1.405       .  A
C226        H230   1.083       .  S
C231        C236   1.398       .  A
C231        C472   1.405       .  A
C231        H237   1.082       .  S
C232        C233   1.405       .  A
C232        C471   1.404   1_565  A
C233        C234   1.399       .  A
C233        H238   1.082       .  S
C234        C235   1.405       .  A
C234        H239   1.083       .  S
C235        C476   1.404   1_565  A
C236        C475   1.405       .  A
C236        H240   1.083       .  S
O241        V249   1.900       .  S
O242        V729   1.901   1_565  S
O243        V249   1.902       .  S
O243        C733   1.264       .  A
O244        V729   1.902   1_665  S
O244        C254   1.264       .  A
O245        V730   1.904   1_565  S
O245        C494   1.266   1_556  A
O246        V250   1.903       .  S
O247        V250   1.895       .  S
O247        C252   1.264   1_546  A
O248        V730   1.896   1_565  S
O248        C251   1.265   1_566  A
V249        O722   1.901   1_545  S
V249        O724   1.902   1_545  S
V249        V490   2.082       .  T
V250        O725   1.904   1_545  S
V250        O728   1.896   1_445  S
V250        V489   2.082   1_546  T
C251        C462   1.478       .  S
C252        C472   1.478       .  S
C253        O723   1.264       .  A
C253        C454   1.472       .  S
C254        O485   1.265   1_655  A
C254        C458   1.473       .  S
O255        V263   1.902   1_455  S
O255        C265   1.266       .  A
O256        V743   1.902   1_545  S
O256        C266   1.266       .  A
O257        V263   1.902       .  S
O257        C267   1.264       .  A
O258        V743   1.902   1_545  S
O258        C748   1.264       .  A
O259        V264   1.903   1_545  S
O259        C268   1.265   1_655  A
O260        V744   1.903       .  S
O260        C747   1.265       .  A
O261        V744   1.897       .  S
O261        C266   1.265   1_565  A
O262        V264   1.896   1_455  S
O262        C265   1.265       .  A
V263        O736   1.902   1_565  S
V263        O738   1.902   1_665  S
V263        V264   2.082       .  T
V264        O740   1.903   1_655  S
V264        O741   1.897       .  S
C265        C447   1.478       .  S
C266        C434   1.479       .  S
C267        O740   1.265   1_655  A
C267        C429   1.471       .  S
C268        O738   1.264       .  A
C268        C426   1.474       .  S
O269        V277   1.900   1_545  S
O270        V277   1.900       .  S
O271        V277   1.902       .  S
O271        C281   1.264       .  A
O272        V277   1.902   1_545  S
O272        C282   1.264       .  A
O273        V278   1.904   1_545  S
O274        V278   1.904       .  S
O275        V278   1.897   1_545  S
O275        C280   1.265   1_546  A
O276        V278   1.900       .  S
O276        C279   1.266   1_566  A
C279        C465   1.479       .  S
C280        C475   1.477       .  S
C281        C421   1.471       .  S
C282        C417   1.472       .  S
O283        V291   1.901   1_565  S
O283        C293   1.266       .  A
O284        V291   1.901       .  S
O284        C294   1.266       .  A
O285        V291   1.902       .  S
O285        C295   1.264       .  A
O286        V291   1.901   1_565  S
O286        C296   1.264       .  A
O287        V292   1.903       .  S
O287        C296   1.265       .  A
O288        V292   1.904   1_545  S
O288        C295   1.265       .  A
O289        V292   1.897       .  S
O289        C294   1.265   1_565  A
O290        V292   1.897   1_545  S
O290        C293   1.265   1_545  A
V291        V292   2.081   1_545  T
C293        C444   1.478       .  S
C294        C437   1.479       .  S
C295        C409   1.472       .  S
C296        C413   1.471       .  S
O298        V305   1.899       .  S
O298        C308   1.264       .  A
O299        V305   1.898       .  S
O299        C309   1.263       .  A
O300        C310   1.265       .  A
O301        C790   1.263       .  A
O302        V306   1.899       .  S
O302        C789   1.264       .  A
O303        C548   1.264       .  A
O304        V306   1.902       .  S
O304        C787   1.265       .  A
V305        V786   2.089   1_455  T
V306        V785   2.089       .  T
C307        O784   1.265   1_455  A
C307        C457   1.471       .  S
C308        O543   1.265   1_455  A
C309        O782   1.264   1_455  A
C309        C323   1.463       .  S
C310        O781   1.263   1_455  A
C310        C324   1.464       .  S
O311        V319   1.900       .  S
O311        C801   1.264       .  A
O312        V319   1.900       .  S
O312        C802   1.264       .  A
O313        V319   1.896       .  S
O313        C803   1.263       .  A
O314        V319   1.900       .  S
O314        C804   1.264       .  A
O315        V320   1.897       .  S
O315        C324   1.263       .  A
O316        V320   1.900       .  S
O316        C323   1.264       .  A
O317        V320   1.903       .  S
O317        C322   1.265       .  A
O318        V320   1.903       .  S
O318        C321   1.264       .  A
V319        V800   2.089       .  T
V320        V799   2.089   1_455  T
C321        O791   1.264   1_455  A
C321        C430   1.472       .  S
C322        O792   1.264   1_455  A
C322        C378   1.468       .  S
C323        O793   1.263   1_455  A
C324        O794   1.264   1_455  A
O326        V333   1.898       .  S
O326        C336   1.263       .  A
O327        V333   1.902       .  S
O327        C337   1.265       .  A
O328        C338   1.263       .  A
O329        C338   1.264       .  A
O330        V334   1.896       .  S
O330        C337   1.263       .  A
O332        V334   1.905       .  S
O332        C335   1.265       .  A
V333        V334   2.089       .  T
C337        C351   1.464       .  S
C338        C352   1.464       .  S
O339        V347   1.902       .  S
O339        C349   1.264       .  A
O340        V347   1.902       .  S
O340        C350   1.265       .  A
O341        V347   1.900       .  S
O341        C351   1.265       .  A
O342        V347   1.897       .  S
O342        C352   1.263       .  A
O343        V348   1.901       .  S
O343        C352   1.264       .  A
O344        V348   1.897       .  S
O344        C351   1.263       .  A
O345        V348   1.900       .  S
O345        C350   1.264       .  A
O346        V348   1.900       .  S
O346        C349   1.264       .  A
V347        V348   2.089       .  T
C349        C414   1.471       .  S
C350        C406   1.468       .  S
O354        V361   1.901       .  S
O354        C364   1.264       .  A
O355        V361   1.895       .  S
O355        C365   1.262   1_455  A
O356        C366   1.265   1_455  A
O357        C846   1.262       .  A
O358        V362   1.902       .  S
O358        C845   1.265       .  A
O359        C604   1.264       .  A
O360        V362   1.903       .  S
O360        C843   1.264       .  A
V361        V842   2.088   1_455  T
V362        V841   2.088       .  T
C363        O840   1.264       .  A
C363        C453   1.472       .  S
C364        O599   1.265   1_455  A
C365        O838   1.265       .  A
C365        C379   1.463       .  S
C366        O837   1.262       .  A
C366        C380   1.464       .  S
O367        V375   1.902       .  S
O367        C857   1.263       .  A
O368        V375   1.900       .  S
O368        C858   1.264       .  A
O369        V375   1.897       .  S
O369        C859   1.263       .  A
O370        V375   1.900       .  S
O370        C860   1.265       .  A
O371        V376   1.898       .  S
O371        C380   1.263   1_455  A
O372        V376   1.900       .  S
O372        C379   1.265   1_455  A
O373        V376   1.903       .  S
O373        C378   1.265       .  A
O374        V376   1.904       .  S
O374        C377   1.265   1_455  A
V375        V856   2.089       .  T
V376        V855   2.089   1_455  T
C377        O847   1.263       .  A
C377        C425   1.472       .  S
C378        O848   1.264   1_455  A
C379        O849   1.263       .  A
C380        O850   1.265       .  A
O382        V389   1.900       .  S
O382        C392   1.264       .  A
O383        V389   1.898       .  S
O383        C393   1.264       .  A
O384        C394   1.264       .  A
O385        C394   1.264       .  A
O386        V390   1.898       .  S
O386        C393   1.263       .  A
O388        V390   1.903       .  S
O388        C391   1.265       .  A
V389        V390   2.089       .  T
C391        C418   1.470       .  S
C393        C407   1.463       .  S
C394        C408   1.463       .  S
O395        V403   1.902       .  S
O395        C405   1.265       .  A
O396        V403   1.901       .  S
O396        C406   1.264       .  A
O397        V403   1.901       .  S
O397        C407   1.264       .  A
O398        V403   1.896       .  S
O398        C408   1.263       .  A
O399        V404   1.901       .  S
O399        C408   1.264       .  A
O400        V404   1.896       .  S
O400        C407   1.263       .  A
O401        V404   1.902       .  S
O401        C406   1.265       .  A
O402        V404   1.903       .  S
O402        C405   1.264       .  A
V403        V404   2.089       .  T
C405        C410   1.474       .  S
C409        C410   1.342       .  D
C409        H411   1.087       .  S
C410        H412   1.087       .  S
C413        C414   1.341       .  D
C413        H415   1.087       .  S
C414        H416   1.087       .  S
C417        C418   1.341       .  D
C418        H420   1.087       .  S
C421        C422   1.342       .  D
C421        H423   1.087       .  S
C425        C426   1.341   1_655  D
C425        H907   1.087       .  S
C426        H428   1.087       .  S
H427        C905   1.087       .  S
C429        C430   1.342   1_655  D
C429        H911   1.087       .  S
C430        H432   1.087       .  S
H431        C909   1.087       .  S
C433        C434   1.405       .  A
C433        C438   1.399       .  A
C433        H439   1.082       .  S
C434        C435   1.405   1_545  A
C435        C436   1.396       .  A
C435        H440   1.082       .  S
C436        C437   1.405   1_565  A
C436        H441   1.083       .  S
C437        C438   1.405       .  A
C438        H442   1.082       .  S
C443        C444   1.405   1_545  A
C443        C448   1.396       .  A
C443        H449   1.082       .  S
C444        C445   1.405       .  A
C445        C446   1.398       .  A
C445        H450   1.082       .  S
C446        C447   1.405       .  A
C446        H451   1.082       .  S
C447        C448   1.405   1_565  A
C448        H452   1.083       .  S
C453        C454   1.342   1_655  D
C453        H695   1.087       .  S
C454        H456   1.087       .  S
H455        C693   1.087       .  S
C457        H459   1.087       .  S
C458        H940   1.087       .  S
H460        C938   1.087       .  S
C461        C462   1.405   1_566  A
C461        C466   1.397       .  A
C461        H467   1.082       .  S
C463        C464   1.398       .  A
C463        H468   1.083       .  S
C464        H469   1.082       .  S
C465        C466   1.404   1_544  A
C466        H470   1.082       .  S
C471        C476   1.395       .  A
C471        H477   1.083       .  S
C472        C473   1.405   1_564  A
C473        C474   1.395       .  A
C473        H478   1.083       .  S
C474        C475   1.404   1_546  A
C474        H479   1.082       .  S
C476        H480   1.082       .  S
O481        V489   1.902   1_645  S
O481        C731   1.266       .  A
O482        C732   1.266       .  A
O483        V489   1.898   1_545  S
O484        C494   1.263       .  A
O486        V490   1.903       .  S
O486        C733   1.265       .  A
O487        V490   1.897       .  S
O487        C492   1.265   1_545  A
O488        C491   1.265   1_565  A
C491        O721   1.265       .  A
C491        C702   1.478       .  S
C492        O722   1.265       .  A
C492        C712   1.478       .  S
C493        O726   1.265   1_554  A
C493        C694   1.470       .  S
C494        C698   1.470       .  S
O495        V503   1.903       .  S
O495        C505   1.266       .  A
O496        C506   1.266       .  A
O497        V503   1.904       .  S
O497        C507   1.264       .  A
O499        V504   1.902       .  S
O499        C508   1.265       .  A
O501        C506   1.264       .  A
O502        V504   1.893       .  S
O502        C505   1.264   1_545  A
V503        V504   2.083   1_565  T
C505        C687   1.478       .  S
C506        C674   1.479       .  S
C507        C669   1.473       .  S
C508        C666   1.474       .  S
O509        V517   1.899   1_545  S
O509        C759   1.265       .  A
O510        V517   1.899       .  S
O510        C760   1.265       .  A
O511        V517   1.900       .  S
O511        C521   1.263       .  A
O512        V517   1.898   1_545  S
O512        C522   1.263       .  A
O513        V518   1.902       .  S
O513        C762   1.265       .  A
O514        V518   1.904   1_565  S
O514        C761   1.265       .  A
O515        V518   1.896       .  S
O515        C520   1.265   1_545  A
O516        V518   1.898       .  S
O516        C519   1.265       .  A
V517        V758   2.081   1_554  T
V518        V757   2.082   1_545  T
C519        O749   1.265       .  A
C519        C705   1.478       .  S
C520        O750   1.265       .  A
C520        C715   1.477       .  S
C521        O754   1.265   1_554  A
C521        C661   1.470       .  S
C522        O753   1.265   1_554  A
C522        C657   1.469       .  S
O523        V531   1.899   1_565  S
O523        C533   1.265       .  A
O524        V531   1.898       .  S
O524        C534   1.265       .  A
O525        V531   1.902       .  S
O525        C535   1.264       .  A
O526        V531   1.903   1_565  S
O526        C536   1.264       .  A
O527        V532   1.903       .  S
O527        C536   1.265       .  A
O528        V532   1.902   1_545  S
O528        C535   1.265       .  A
O529        V532   1.899       .  S
O529        C534   1.266   1_565  A
O530        V532   1.900   1_545  S
O530        C533   1.266   1_545  A
V531        V532   2.082   1_545  T
C533        C684   1.479       .  S
C534        C677   1.478       .  S
C535        C649   1.471       .  S
C536        C653   1.472       .  S
O537        V785   1.900       .  S
O537        C787   1.263       .  A
O538        V545   1.902       .  S
O538        C548   1.265       .  A
O539        V545   1.897       .  S
O539        C549   1.263       .  A
O540        V785   1.902   1_554  S
O540        C550   1.265       .  A
O541        V786   1.897   1_554  S
O542        V546   1.901       .  S
O543        V786   1.903       .  S
O544        V546   1.903       .  S
V545        O777   1.903       .  S
V545        O780   1.901       .  S
V546        O781   1.896       .  S
V546        O783   1.902       .  S
C547        O777   1.264       .  A
C547        C697   1.473       .  S
C548        C844   1.469       .  S
C549        C563   1.464       .  S
C550        C564   1.465       .  S
O551        V559   1.899       .  S
O552        V559   1.899       .  S
O553        V559   1.899       .  S
O554        V559   1.902       .  S
O555        V560   1.897       .  S
O555        C564   1.263       .  A
O556        V560   1.899       .  S
O556        C563   1.264       .  A
O557        V560   1.908       .  S
O557        C562   1.266       .  A
O558        V560   1.907       .  S
O558        C561   1.265       .  A
C561        C670   1.475       .  S
C562        C618   1.471       .  S
O565        V813   1.898       .  S
O565        C815   1.264       .  A
O566        V573   1.899       .  S
O566        C576   1.264       .  A
O567        V573   1.900       .  S
O567        C577   1.265       .  A
O568        V813   1.898   1_554  S
O568        C578   1.263       .  A
O569        V814   1.899   1_554  S
O569        C578   1.264       .  A
O570        V574   1.897       .  S
O570        C577   1.263       .  A
O571        V814   1.905       .  S
O571        C816   1.265       .  A
O572        V574   1.905       .  S
O572        C575   1.264       .  A
V573        O805   1.900       .  S
V573        O808   1.897       .  S
V573        V574   2.089       .  T
V574        O809   1.901       .  S
V574        O811   1.904       .  S
C575        O805   1.264       .  A
C575        C902   1.474       .  S
C576        O811   1.265       .  A
C576        C872   1.468       .  S
C577        C591   1.464       .  S
C578        C592   1.463       .  S
O579        V587   1.901       .  S
O579        C589   1.263       .  A
O580        V587   1.901       .  S
O580        C590   1.264       .  A
O581        V587   1.902       .  S
O581        C591   1.265       .  A
O582        V587   1.897       .  S
O582        C592   1.263       .  A
O583        V588   1.899       .  S
O583        C592   1.264       .  A
O584        V588   1.896       .  S
O584        C591   1.263       .  A
O585        V588   1.905       .  S
O585        C590   1.265       .  A
O586        V588   1.903       .  S
O586        C589   1.265       .  A
V587        V588   2.088       .  T
C589        C654   1.473       .  S
C590        C646   1.469       .  S
O593        V841   1.901       .  S
O593        C843   1.264       .  A
O594        V601   1.900       .  S
O594        C604   1.264       .  A
O595        V601   1.900   1_554  S
O595        C605   1.264       .  A
O596        V841   1.899       .  S
O596        C606   1.264       .  A
O597        V842   1.899       .  S
O598        V602   1.900   1_554  S
O599        V842   1.903       .  S
O600        V602   1.901       .  S
V601        O833   1.900       .  S
V601        O836   1.903       .  S
V602        O837   1.895       .  S
V602        O839   1.902       .  S
C603        O833   1.264       .  A
C603        C693   1.470       .  S
C604        C788   1.467       .  S
C605        C619   1.465       .  S
C606        C620   1.464       .  S
O607        V615   1.900       .  S
O608        V615   1.899       .  S
O609        V615   1.898       .  S
O610        V615   1.902       .  S
O611        V616   1.895       .  S
O611        C620   1.263       .  A
O612        V616   1.901       .  S
O612        C619   1.264       .  A
O613        V616   1.907       .  S
O613        C618   1.265       .  A
O614        V616   1.906       .  S
O614        C617   1.265       .  A
C617        C665   1.471       .  S
O621        V869   1.900       .  S
O621        C871   1.263       .  A
O622        V629   1.899       .  S
O622        C632   1.264       .  A
O623        V629   1.905   1_554  S
O623        C633   1.266       .  A
O624        V869   1.895       .  S
O624        C634   1.262       .  A
O625        V870   1.903       .  S
O625        C634   1.265       .  A
O626        V630   1.896   1_554  S
O626        C633   1.262       .  A
O627        V870   1.903       .  S
O627        C872   1.265       .  A
O628        V630   1.901       .  S
O628        C631   1.265       .  A
V629        O861   1.900       .  S
V629        O864   1.899       .  S
V629        V630   2.089       .  T
V630        O865   1.897       .  S
V630        O867   1.903       .  S
C631        O861   1.263       .  A
C631        C658   1.471       .  S
C632        O867   1.264       .  A
C632        C816   1.468       .  S
C633        C647   1.466       .  S
C634        C648   1.464       .  S
O635        V643   1.899       .  S
O635        C645   1.264       .  A
O636        V643   1.899       .  S
O636        C646   1.264       .  A
O637        V643   1.901       .  S
O637        C647   1.265       .  A
O638        V643   1.899       .  S
O638        C648   1.263       .  A
O639        V644   1.899       .  S
O639        C648   1.264       .  A
O640        V644   1.898       .  S
O640        C647   1.263       .  A
O641        V644   1.905       .  S
O641        C646   1.265       .  A
O642        V644   1.905       .  S
O642        C645   1.265       .  A
V643        V644   2.089       .  T
C645        C650   1.473       .  S
C649        C650   1.342       .  D
C649        H651   1.087       .  S
C650        H652   1.087       .  S
C653        C654   1.341       .  D
C653        H655   1.087       .  S
C654        H656   1.087       .  S
C657        C658   1.339   1_554  D
C657        H899   1.087       .  S
C658        H660   1.087       .  S
H659        C897   1.087       .  S
C661        C662   1.342   1_554  D
C661        H663   1.087       .  S
C662        C815   1.473       .  S
C662        H904   1.087       .  S
H664        C902   1.087       .  S
C665        C666   1.341       .  D
C666        H668   1.087       .  S
C669        C670   1.343       .  D
C670        H672   1.087       .  S
C673        C674   1.405       .  A
C673        C678   1.398       .  A
C673        H679   1.083       .  S
C674        C675   1.406   1_545  A
C675        C676   1.397       .  A
C675        H680   1.082       .  S
C676        C677   1.404   1_565  A
C676        H681   1.083       .  S
C677        C678   1.406       .  A
C678        H682   1.082       .  S
C683        C684   1.404       .  A
C683        C688   1.396       .  A
C683        H689   1.082   1_565  S
C684        C685   1.406       .  A
C685        C686   1.398       .  A
C685        H690   1.083       .  S
C686        C687   1.405       .  A
C686        H691   1.082       .  S
C687        C688   1.405       .  A
C688        H692   1.083   1_565  S
C693        C694   1.340   1_556  D
C694        H696   1.087       .  S
C697        C938   1.342       .  D
C697        H699   1.087       .  S
C698        C937   1.339   1_554  D
C701        C702   1.405   1_565  A
C701        C706   1.397       .  A
C701        H707   1.082       .  S
C702        C943   1.405       .  A
C703        C942   1.405       .  A
C703        C704   1.398       .  A
C703        H708   1.083       .  S
C704        C945   1.406       .  A
C704        H709   1.083       .  S
C705        C944   1.405       .  A
C705        C706   1.405   1_545  A
C706        H710   1.083       .  S
C711        C952   1.405       .  A
C711        C716   1.398       .  A
C711        H717   1.082       .  S
C712        C951   1.404   1_565  A
C712        C713   1.405       .  A
C713        C714   1.399       .  A
C713        H718   1.082       .  S
C714        C715   1.405       .  A
C714        H719   1.083       .  S
C715        C956   1.404   1_565  A
C716        C955   1.405       .  A
C716        H720   1.083       .  S
O721        V729   1.900   1_655  S
O723        V729   1.902       .  S
O724        C734   1.264       .  A
O726        V730   1.903       .  S
O727        V730   1.895       .  S
O727        C732   1.264   1_546  A
O728        C731   1.265   1_566  A
C731        C942   1.478       .  S
C732        C952   1.478       .  S
C733        C934   1.472       .  S
C734        C938   1.473       .  S
O735        V743   1.902       .  S
O735        C745   1.266       .  A
O736        C746   1.266       .  A
O737        V743   1.902       .  S
O737        C747   1.264       .  A
O739        V744   1.903   1_545  S
O739        C748   1.265       .  A
O741        C746   1.265   1_565  A
O742        V744   1.896       .  S
O742        C745   1.265       .  A
V743        V744   2.082       .  T
C745        C927   1.478       .  S
C746        C914   1.479       .  S
C747        C909   1.471       .  S
C748        C906   1.474       .  S
O749        V757   1.900   1_545  S
O750        V757   1.900       .  S
O751        V757   1.902       .  S
O751        C761   1.264       .  A
O752        V757   1.902   1_545  S
O752        C762   1.264       .  A
O753        V758   1.904   1_545  S
O754        V758   1.904       .  S
O755        V758   1.897   1_545  S
O755        C760   1.265   1_546  A
O756        V758   1.900       .  S
O756        C759   1.266   1_566  A
C759        C945   1.479       .  S
C760        C955   1.477       .  S
C761        C901   1.471       .  S
C762        C897   1.472       .  S
O763        V771   1.901   1_565  S
O763        C773   1.266       .  A
O764        V771   1.901       .  S
O764        C774   1.266       .  A
O765        V771   1.902       .  S
O765        C775   1.264       .  A
O766        V771   1.901   1_565  S
O766        C776   1.264       .  A
O767        V772   1.903       .  S
O767        C776   1.265       .  A
O768        V772   1.904   1_545  S
O768        C775   1.265       .  A
O769        V772   1.897       .  S
O769        C774   1.265   1_565  A
O770        V772   1.897   1_545  S
O770        C773   1.265   1_545  A
V771        V772   2.081   1_545  T
C773        C924   1.478       .  S
C774        C917   1.479       .  S
C775        C889   1.472       .  S
C776        C893   1.471       .  S
O778        V785   1.899       .  S
O778        C788   1.264       .  A
O779        V785   1.898       .  S
O779        C789   1.263       .  A
O780        C790   1.265       .  A
O782        V786   1.899       .  S
O784        V786   1.902       .  S
C787        C937   1.471       .  S
C789        C803   1.463       .  S
C790        C804   1.464       .  S
O791        V799   1.900       .  S
O792        V799   1.900       .  S
O793        V799   1.896       .  S
O794        V799   1.900       .  S
O795        V800   1.897       .  S
O795        C804   1.263       .  A
O796        V800   1.900       .  S
O796        C803   1.264       .  A
O797        V800   1.903       .  S
O797        C802   1.265       .  A
O798        V800   1.903       .  S
O798        C801   1.264       .  A
C801        C910   1.472       .  S
C802        C858   1.468       .  S
O806        V813   1.898       .  S
O806        C816   1.263       .  A
O807        V813   1.902       .  S
O807        C817   1.265       .  A
O808        C818   1.263       .  A
O809        C818   1.264       .  A
O810        V814   1.896       .  S
O810        C817   1.263       .  A
O812        V814   1.905       .  S
O812        C815   1.265       .  A
V813        V814   2.089       .  T
C817        C831   1.464       .  S
C818        C832   1.464       .  S
O819        V827   1.902       .  S
O819        C829   1.264       .  A
O820        V827   1.902       .  S
O820        C830   1.265       .  A
O821        V827   1.900       .  S
O821        C831   1.265       .  A
O822        V827   1.897       .  S
O822        C832   1.263       .  A
O823        V828   1.901       .  S
O823        C832   1.264       .  A
O824        V828   1.897       .  S
O824        C831   1.263       .  A
O825        V828   1.900       .  S
O825        C830   1.264       .  A
O826        V828   1.900       .  S
O826        C829   1.264       .  A
V827        V828   2.089       .  T
C829        C894   1.471       .  S
C830        C886   1.468       .  S
O834        V841   1.901       .  S
O834        C844   1.264       .  A
O835        V841   1.895       .  S
O835        C845   1.262       .  A
O836        C846   1.265       .  A
O838        V842   1.902       .  S
O840        V842   1.903       .  S
C843        C933   1.472       .  S
C845        C859   1.463       .  S
C846        C860   1.464       .  S
O847        V855   1.902       .  S
O848        V855   1.900       .  S
O849        V855   1.897       .  S
O850        V855   1.900       .  S
O851        V856   1.898       .  S
O851        C860   1.263       .  A
O852        V856   1.900       .  S
O852        C859   1.265       .  A
O853        V856   1.903       .  S
O853        C858   1.265       .  A
O854        V856   1.904       .  S
O854        C857   1.265       .  A
C857        C905   1.472       .  S
O862        V869   1.900       .  S
O862        C872   1.264       .  A
O863        V869   1.898       .  S
O863        C873   1.264       .  A
O864        C874   1.264       .  A
O865        C874   1.264       .  A
O866        V870   1.898       .  S
O866        C873   1.263       .  A
O868        V870   1.903       .  S
O868        C871   1.265       .  A
V869        V870   2.089       .  T
C871        C898   1.470       .  S
C873        C887   1.463       .  S
C874        C888   1.463       .  S
O875        V883   1.902       .  S
O875        C885   1.265       .  A
O876        V883   1.901       .  S
O876        C886   1.264       .  A
O877        V883   1.901       .  S
O877        C887   1.264       .  A
O878        V883   1.896       .  S
O878        C888   1.263       .  A
O879        V884   1.901       .  S
O879        C888   1.264       .  A
O880        V884   1.896       .  S
O880        C887   1.263       .  A
O881        V884   1.902       .  S
O881        C886   1.265       .  A
O882        V884   1.903       .  S
O882        C885   1.264       .  A
V883        V884   2.089       .  T
C885        C890   1.474       .  S
C889        C890   1.342       .  D
C889        H891   1.087       .  S
C890        H892   1.087       .  S
C893        C894   1.341       .  D
C893        H895   1.087       .  S
C894        H896   1.087       .  S
C897        C898   1.341       .  D
C898        H900   1.087       .  S
C901        C902   1.342       .  D
C901        H903   1.087       .  S
C905        C906   1.341       .  D
C906        H908   1.087       .  S
C909        C910   1.342       .  D
C910        H912   1.087       .  S
C913        C914   1.405       .  A
C913        C918   1.399       .  A
C913        H919   1.082       .  S
C914        C915   1.405   1_545  A
C915        C916   1.396       .  A
C915        H920   1.082       .  S
C916        C917   1.405   1_565  A
C916        H921   1.083       .  S
C917        C918   1.405       .  A
C918        H922   1.082       .  S
C923        C924   1.405   1_545  A
C923        C928   1.396       .  A
C923        H929   1.082       .  S
C924        C925   1.405       .  A
C925        C926   1.398       .  A
C925        H930   1.082       .  S
C926        C927   1.405       .  A
C926        H931   1.082       .  S
C927        C928   1.405   1_565  A
C928        H932   1.083       .  S
C933        C934   1.342       .  D
C934        H936   1.087       .  S
C937        H939   1.087       .  S
C941        C942   1.405   1_566  A
C941        C946   1.397       .  A
C941        H947   1.082       .  S
C943        C944   1.398       .  A
C943        H948   1.083       .  S
C944        H949   1.082       .  S
C945        C946   1.404   1_544  A
C946        H950   1.082       .  S
C951        C956   1.395       .  A
C951        H957   1.083       .  S
C952        C953   1.405   1_564  A
C953        C954   1.395       .  A
C953        H958   1.083       .  S
C954        C955   1.404   1_546  A
C954        H959   1.082       .  S
C956        H960   1.082       .  S
