geometry optimzed in LAMMPS
_audit_creation_date              2020-11-30 
_audit_creation_method            'lammps2cif' 
_symmetry_space_group_name_H-M    'P1' 
_symmetry_Int_Tables_number       1 
_symmetry_cell_setting            triclinic 
loop_ 
_symmetry_equiv_pos_as_xyz 
  x,y,z 
_cell_length_a                    53.72794998 
_cell_length_b                    54.39067522794064 
_cell_length_c                    27.10101606807917 
_cell_angle_alpha                 90.42428252426814 
_cell_angle_beta                  90.20827726961807 
_cell_angle_gamma                 121.64643328453131 
loop_ 
_atom_site_label 
_atom_site_type_symbol 
_atom_site_fract_x 
_atom_site_fract_y 
_atom_site_fract_z 
_atom_site_charge 
In1        In  0.42672457  0.33635020  0.73546906     1.36900
C2          C  0.47647084  0.38748513  0.73277517     0.78100
O3          O  0.41771238  0.32507474  0.65439956    -0.60400
O4          O  0.39821720  0.34615986  0.68729193    -0.51300
C5          C  0.42733172  0.28787157  0.73699080     0.70700
O6          O  0.45032155  0.31256605  0.73928979    -0.46200
C7          C  0.40608009  0.33439576  0.82634788     0.75400
O8          O  0.47498327  0.36428215  0.72141313    -0.58000
O9          O  0.39139273  0.33138839  0.78784244    -0.48100
O10         O  0.45243368  0.38471044  0.74396923    -0.54400
C11         C  0.40193792  0.33559451  0.64849329     0.85600
O12         O  0.40386324  0.28790214  0.73402211    -0.56300
O13         O  0.43060795  0.33751738  0.81828384    -0.59600
In14       In  0.70321095  0.61870952  0.75362619     1.36900
C15         C  0.65279481  0.56817810  0.74939351     0.78100
O16         O  0.70295273  0.61571713  0.83575914    -0.60400
O17         O  0.70809863  0.65390636  0.80512438    -0.51300
C18         C  0.75325416  0.62039022  0.75759490     0.70700
O19         O  0.72870585  0.59713422  0.75548069    -0.46200
C20         C  0.70182803  0.64198625  0.66767149     0.75400
O21         O  0.67684716  0.57094124  0.73836014    -0.58000
O22         O  0.68986685  0.64409211  0.70602506    -0.48100
O23         O  0.65440494  0.59124563  0.76233281    -0.54400
C24         C  0.70616427  0.64004266  0.84353485     0.85600
O25         O  0.75237014  0.64315078  0.75718944    -0.56300
O26         O  0.71495955  0.62871361  0.67360155    -0.59600
In27       In  0.36553194  0.39232812  0.23722472     1.36900
C28         C  0.41654921  0.44215060  0.23416843     0.78100
O29         O  0.36534227  0.39556650  0.31959607    -0.60400
O30         O  0.36151336  0.35773168  0.28892977    -0.51300
C31         C  0.31578158  0.39158103  0.23956657     0.70700
O32         O  0.34059880  0.41454079  0.24159586    -0.46200
C33         C  0.36776537  0.36991604  0.15007620     0.75400
O34         O  0.39297181  0.43950975  0.21972474    -0.58000
O35         O  0.35432271  0.38287213  0.15629253    -0.48100
O36         O  0.41414874  0.41932293  0.24990962    -0.54400
C37         C  0.36314313  0.37173669  0.32748359     0.85600
O38         O  0.31622852  0.36859873  0.23618823    -0.56300
O39         O  0.37894860  0.36706782  0.18891529    -0.59600
In40       In  0.64397253  0.67283067  0.25230116     1.36900
C41         C  0.59454222  0.62136598  0.24549638     0.78100
O42         O  0.65041274  0.68136308  0.17099321    -0.60400
O43         O  0.67457825  0.66560353  0.20585235    -0.51300
C44         C  0.64769176  0.72358812  0.25750740     0.70700
O45         O  0.62365786  0.69973505  0.25787460    -0.46200
C46         C  0.66298045  0.67259718  0.34299193     0.75400
O47         O  0.59610052  0.64435725  0.23280123    -0.58000
O48         O  0.67694082  0.67336333  0.30502241    -0.48100
O49         O  0.61812000  0.62467272  0.26140254    -0.54400
C50         C  0.66833585  0.67328709  0.16626852     0.85600
O51         O  0.67002963  0.72156920  0.25477378    -0.56300
O52         O  0.63989066  0.67253375  0.33439609    -0.59600
In53       In  0.09846504  0.40606551  0.24691171     1.36900
C54         C  0.09780690  0.45493644  0.24839649     0.78100
O55         O  0.10135956  0.40496785  0.16424486    -0.60400
O56         O  0.06147510  0.37382119  0.19724425    -0.51300
C57         C  0.14584486  0.40220863  0.24794100     0.70700
O58         O  0.14700219  0.42596110  0.25049745    -0.46200
C59         C  0.07749039  0.38451158  0.33573661     0.75400
O60         O  0.12098735  0.45467508  0.24399583    -0.58000
O61         O  0.06260317  0.37379479  0.29676215    -0.48100
O62         O  0.07502338  0.43032196  0.25158748    -0.54400
C63         C  0.07566382  0.38387719  0.15797700     0.85600
O64         O  0.12032439  0.38020767  0.24470526    -0.56300
O65         O  0.10292755  0.40574215  0.32909680    -0.59600
In66       In  0.09204896  0.67491238  0.24341212     1.36900
C67         C  0.09145645  0.62531680  0.24924984     0.78100
O68         O  0.09608295  0.68347549  0.32520357    -0.60400
O69         O  0.05534158  0.66992998  0.29069597    -0.51300
C70         C  0.14105387  0.72651131  0.24176291     0.70700
O71         O  0.14032591  0.70307177  0.24588404    -0.46200
C72         C  0.06981145  0.67189869  0.15367422     0.75400
O73         O  0.11449965  0.64963357  0.24523420    -0.58000
O74         O  0.05520726  0.66747110  0.19241146    -0.48100
O75         O  0.06850021  0.62612056  0.24986441    -0.54400
C76         C  0.06989152  0.67639190  0.33029674     0.85600
O77         O  0.11626539  0.72390021  0.23872409    -0.56300
O78         O  0.09569864  0.67836795  0.16090713    -0.59600
In79       In  0.97998352  0.34463970  0.74472523     1.36900
C80         C  0.97931740  0.39341089  0.74011598     0.78100
O81         O  0.97700529  0.34234646  0.82730004    -0.60400
O82         O  0.01579086  0.34873661  0.79494848    -0.51300
C83         C  0.93190027  0.29260325  0.74883033     0.70700
O84         O  0.93184083  0.31572222  0.75097564    -0.46200
C85         C  0.00145472  0.34464211  0.65624116     0.75400
O86         O  0.95665625  0.36871383  0.73626660    -0.58000
O87         O  0.01675855  0.35121826  0.69505665    -0.48100
O88         O  0.00251469  0.39336277  0.74653546    -0.54400
C89         C  0.00182816  0.34581040  0.83400454     0.85600
O90         O  0.95684651  0.29587014  0.74391212    -0.56300
O91         O  0.97531788  0.33733122  0.66303322    -0.59600
In92       In  0.97305187  0.61251863  0.73993111     1.36900
C93         C  0.97194205  0.56298494  0.74106483     0.78100
O94         O  0.96856902  0.61096466  0.65737391    -0.60400
O95         O  0.00875118  0.64356835  0.68929096    -0.51300
C96         C  0.92715878  0.61829760  0.74413768     0.70700
O97         O  0.92518749  0.59417922  0.74239439    -0.46200
C98         C  0.99610739  0.63367766  0.82849228     0.75400
O99         O  0.94897420  0.56379649  0.73876360    -0.58000
O100        O  0.01020654  0.64472376  0.78941570    -0.48100
O101        O  0.99525193  0.58733957  0.74272032    -0.54400
C102        C  0.99403981  0.63209154  0.65043648     0.85600
O103        O  0.95290602  0.63998101  0.74269146    -0.56300
O104        O  0.97050652  0.61252773  0.82191300    -0.59600
In105      In  0.70481847  0.06397672  0.77191233     1.36900
C106        C  0.65613049  0.06525479  0.76121711     0.78100
O107        O  0.71986368  0.06591330  0.69374672    -0.60400
O108        O  0.69041465  0.02469344  0.72310114    -0.51300
C109        C  0.75611982  0.11265463  0.77544597     0.70700
O110        O  0.73225081  0.11185731  0.77777914    -0.46200
C111        C  0.70614629  0.04603075  0.86292570     0.75400
O112        O  0.68121962  0.08704045  0.75459307    -0.58000
O113        O  0.70469438  0.06790999  0.85429644    -0.48100
O114        O  0.65585662  0.04275498  0.77283177    -0.54400
C115        C  0.70497817  0.03907035  0.68635791     0.85600
O116        O  0.75380752  0.08835232  0.77183076    -0.56300
O117        O  0.70645423  0.03270379  0.82488437    -0.59600
In118      In  0.43275002  0.06853347  0.74930554     1.36900
C119        C  0.48205594  0.06790381  0.75309000     0.78100
O120        O  0.42834505  0.07206428  0.83113767    -0.60400
O121        O  0.40255417  0.03072644  0.79768350    -0.51300
C122        C  0.42884215  0.11515028  0.74865740     0.70700
O123        O  0.45277516  0.11624455  0.75347655    -0.46200
C124        C  0.41365764  0.04880570  0.65791908     0.75400
O125        O  0.48197626  0.09098063  0.75102266    -0.58000
O126        O  0.39991245  0.03492570  0.69565733    -0.48100
O127        O  0.45707760  0.04530539  0.75335147    -0.54400
C128        C  0.41029727  0.04553687  0.83704994     0.85600
O129        O  0.40650307  0.08995900  0.74492629    -0.56300
O130        O  0.43659085  0.07272045  0.66703094    -0.59600
In131      In  0.37692464  0.94851193  0.24705771     1.36900
C132        C  0.42575990  0.94684458  0.24976043     0.78100
O133        O  0.37583437  0.94659923  0.16407104    -0.60400
O134        O  0.37897868  0.98325386  0.19830296    -0.51300
C135        C  0.32407488  0.90135664  0.24446633     0.70700
O136        O  0.34700098  0.90073374  0.25094455    -0.46200
C137        C  0.37759295  0.97083418  0.33600743     0.75400
O138        O  0.40070786  0.92446188  0.24624183    -0.58000
O139        O  0.36613007  0.94419498  0.32822637    -0.48100
O140        O  0.42591696  0.97003881  0.25137164    -0.54400
C141        C  0.37769415  0.97045052  0.15850894     0.85600
O142        O  0.32810417  0.92626824  0.23944654    -0.56300
O143        O  0.38818944  0.98613822  0.29819058    -0.59600
In144      In  0.65127683  0.94795304  0.27044749     1.36900
C145        C  0.60166563  0.94781815  0.26571271     0.78100
O146        O  0.64782957  0.94464737  0.35277358    -0.60400
O147        O  0.68708680  0.97928673  0.32356550    -0.51300
C148        C  0.65137086  0.89923630  0.26946562     0.70700
O149        O  0.62821728  0.89984844  0.27010980    -0.46200
C150        C  0.67411484  0.97281754  0.18390955     0.75400
O151        O  0.60276842  0.92567606  0.25685366    -0.58000
O152        O  0.67817445  0.98735185  0.22279117    -0.48100
O153        O  0.62582034  0.96995346  0.27722475    -0.54400
C154        C  0.67255024  0.96672410  0.36159348     0.85600
O155        O  0.67479118  0.92374073  0.26950379    -0.56300
O156        O  0.65951287  0.94594045  0.18976537    -0.59600
C157        C  0.49827969  0.96069326  0.25903178     0.20800
C158        C  0.52873925  0.97757956  0.26467789    -0.39100
C159        C  0.54331501  0.96250595  0.26309469     0.19800
C160        C  0.52869707  0.93285722  0.25621849     0.22400
C161        C  0.49814826  0.91589564  0.25089940    -0.39600
C162        C  0.48352740  0.93100295  0.25262312     0.21200
N163        N  0.47956167  0.96999236  0.25870896    -0.32800
C164        C  0.45266500  0.94609091  0.25215691    -0.10400
C165        C  0.45416767  0.92129644  0.24834557    -0.29200
N166        N  0.54766127  0.92381165  0.25585132    -0.45800
C167        C  0.57443214  0.94787844  0.26291053    -0.05100
C168        C  0.57263584  0.97241946  0.26755538    -0.22500
H169        H  0.54025144  0.00077247  0.26983451     0.19400
H170        H  0.48664676  0.89270490  0.24569020     0.18200
H171        H  0.43625233  0.89924416  0.24292807     0.14400
H172        H  0.59039008  0.99450348  0.27341003     0.14300
H173        H  0.48474936  0.99128297  0.26269508     0.32500
H174        H  0.54271735  0.90260639  0.25147478     0.35200
C175        C  0.39383171  0.01378282  0.44564924     0.20800
C176        C  0.40915784  0.03879477  0.47513640    -0.39100
C177        C  0.40391065  0.03488302  0.52600291     0.19800
C178        C  0.38459506  0.00814542  0.54598832     0.22400
C179        C  0.36943236  0.98307719  0.51651816    -0.39600
C180        C  0.37492789  0.98693639  0.46565444     0.21200
N181        N  0.39628251  0.01155400  0.39669326    -0.32800
C182        C  0.37915001  0.98305692  0.38544785    -0.10400
C183        C  0.36538554  0.96699742  0.42747424    -0.29200
N184        N  0.38457930  0.00994042  0.59553216    -0.45800
C185        C  0.40436305  0.03790732  0.60715703    -0.05100
C186        C  0.41677506  0.05415999  0.56478323    -0.22500
H187        H  0.42468165  0.05963069  0.45974636     0.19400
H188        H  0.35507043  0.96200071  0.53219650     0.18200
H189        H  0.35110511  0.94379418  0.42998179     0.14400
H190        H  0.43375390  0.07677205  0.56275919     0.14300
H191        H  0.40969184  0.02823678  0.37270480     0.32500
H192        H  0.37289377  0.99295922  0.62001449     0.35200
C193        C  0.37678909  0.98473453  0.03010645     0.20800
C194        C  0.37301774  0.97830778  0.97928819    -0.39100
C195        C  0.38379947  0.00212483  0.94783417     0.19800
C196        C  0.39755479  0.03020110  0.96574214     0.22400
C197        C  0.40112812  0.03661046  0.01656152    -0.39600
C198        C  0.39003056  0.01277698  0.04802469     0.21200
N199        N  0.37000909  0.96611335  0.06734569    -0.32800
C200        C  0.37877740  0.98233178  0.10931747    -0.10400
C201        C  0.39112309  0.01154459  0.09884917    -0.29200
N202        N  0.40765559  0.04908325  0.92840711    -0.45800
C203        C  0.40025764  0.03298938  0.88635874    -0.05100
C204        C  0.38513927  0.00355558  0.89693684    -0.22500
H205        H  0.36306025  0.95642049  0.96525722     0.19400
H206        H  0.41232314  0.05858714  0.03054748     0.18200
H207        H  0.40088825  0.02952882  0.12469672     0.14400
H208        H  0.37752196  0.98572780  0.87104655     0.14300
H209        H  0.36063334  0.94378728  0.06435933     0.32500
H210        H  0.41976156  0.07158647  0.93138726     0.35200
C211        C  0.70221296  0.00995891  0.97490138     0.20800
C212        C  0.69514044  0.98614456  0.00454604    -0.39100
C213        C  0.69317109  0.99003541  0.05531006     0.19800
C214        C  0.69827710  0.01581957  0.07524236     0.22400
C215        C  0.70533166  0.03964508  0.04559805    -0.39600
C216        C  0.70690802  0.03561779  0.99473852     0.21200
N217        N  0.70270105  0.01082847  0.92529960    -0.32800
C218        C  0.70718254  0.03701040  0.91353181    -0.10400
C219        C  0.71024809  0.05319796  0.95580249    -0.29200
N220        N  0.69332806  0.01340300  0.12411460    -0.45800
C221        C  0.68470098  0.98579120  0.13517768    -0.05100
C222        C  0.68436931  0.97058430  0.09327332    -0.22500
H223        H  0.69033710  0.96569875  0.98901738     0.19400
H224        H  0.70819653  0.05944452  0.06077742     0.18200
H225        H  0.71305362  0.07439861  0.95770088     0.14400
H226        H  0.67752136  0.94801779  0.09065725     0.14300
H227        H  0.69864568  0.99410534  0.90098226     0.32500
H228        H  0.69442652  0.02911050  0.14800830     0.35200
C229        C  0.68147674  0.97861614  0.49199605     0.20800
C230        C  0.67279100  0.97256828  0.54143116    -0.39100
C231        C  0.68845032  0.99539304  0.57515019     0.19800
C232        C  0.71104795  0.02229069  0.56070564     0.22400
C233        C  0.71990959  0.02830684  0.51118631    -0.39600
C234        C  0.70424434  0.00538408  0.47737184     0.21200
N235        N  0.66837777  0.96127476  0.45268444    -0.32800
C236        C  0.68272877  0.97696470  0.41252021    -0.10400
C237        C  0.70552028  0.00455486  0.42639573    -0.29200
N238        N  0.72068080  0.04096566  0.59910764    -0.45800
C239        C  0.70403285  0.02586116  0.63814628    -0.05100
C240        C  0.68389492  0.99727984  0.62474999    -0.22500
H241        H  0.65442086  0.95189906  0.55254277     0.19400
H242        H  0.73698985  0.04955959  0.49958772     0.18200
H243        H  0.71982870  0.02214021  0.40236288     0.14400
H244        H  0.66705009  0.98062752  0.64749270     0.14300
H245        H  0.64992672  0.94039138  0.45300528     0.32500
H246        H  0.73671251  0.06293650  0.59833716     0.35200
C247        C  0.55454733  0.08110876  0.75117703     0.20800
C248        C  0.58507919  0.09730247  0.74627555    -0.39100
C249        C  0.59908545  0.08169930  0.75032218     0.19800
C250        C  0.58381445  0.05225864  0.75877705     0.22400
C251        C  0.55331630  0.03607453  0.76353331    -0.39600
C252        C  0.53931959  0.05163674  0.75929191     0.21200
N253        N  0.53612988  0.09077556  0.74858217    -0.32800
C254        C  0.50901993  0.06724090  0.75474593    -0.10400
C255        C  0.51010094  0.04244131  0.76160655    -0.29200
N256        N  0.60217754  0.04261792  0.76260418    -0.45800
C257        C  0.62933744  0.06606521  0.75666601    -0.05100
C258        C  0.62834891  0.09084527  0.74860321    -0.22500
H259        H  0.59704147  0.12034525  0.73999391     0.19400
H260        H  0.54137786  0.01307204  0.77021187     0.18200
H261        H  0.49194199  0.02063039  0.76723381     0.14400
H262        H  0.64659991  0.11266986  0.74350929     0.14300
H263        H  0.54159749  0.11197046  0.74240602     0.32500
H264        H  0.59663770  0.02149520  0.76975429     0.35200
C265        C  0.87450128  0.21849674  0.75746416     0.20800
C266        C  0.86134530  0.18833623  0.75840216    -0.39100
C267        C  0.83107986  0.17248127  0.76681233     0.19800
C268        C  0.81525769  0.18572616  0.77381744     0.22400
C269        C  0.82835717  0.21575473  0.77286374    -0.39600
C270        C  0.85847475  0.23152560  0.76434355     0.21200
N271        N  0.90289250  0.23851709  0.75030939    -0.32800
C272        C  0.90472067  0.26433288  0.75271763    -0.10400
C273        C  0.87749860  0.26081200  0.76122390    -0.29200
N274        N  0.78677347  0.16603731  0.77935955    -0.45800
C275        C  0.78430892  0.14003193  0.77557786    -0.05100
C276        C  0.81145881  0.14306609  0.76808026    -0.22500
H277        H  0.87367908  0.17798800  0.75260521     0.19400
H278        H  0.81594163  0.22608022  0.77795007     0.18200
H279        H  0.87240432  0.27751529  0.76522998     0.14400
H280        H  0.81602758  0.12608616  0.76260367     0.14300
H281        H  0.91994232  0.23489405  0.74457581     0.32500
H282        H  0.76987216  0.17004272  0.78402781     0.35200
C283        C  0.96173449  0.44828728  0.73621303     0.20800
C284        C  0.94358132  0.45974554  0.73632210    -0.39100
C285        C  0.95805403  0.49001015  0.73866248     0.19800
C286        C  0.98824844  0.50737095  0.74061774     0.22400
C287        C  0.00632951  0.49593700  0.74042906    -0.39600
C288        C  0.99190997  0.46576537  0.73827824     0.21200
N289        N  0.95346289  0.42028520  0.73560077    -0.32800
C290        C  0.97853881  0.41999899  0.73771729    -0.10400
C291        C  0.00298770  0.44795115  0.73915187    -0.29200
N292        N  0.99677730  0.53537260  0.74238921    -0.45800
C293        C  0.97192126  0.53598601  0.74135030    -0.05100
C294        C  0.94722242  0.50811310  0.73922174    -0.22500
H295        H  0.91997984  0.44611777  0.73498682     0.19400
H296        H  0.02991999  0.50955935  0.74220463     0.18200
H297        H  0.02573390  0.45434713  0.74146281     0.14400
H298        H  0.92453391  0.50198439  0.73775287     0.14300
H299        H  0.93208116  0.40245613  0.73484576     0.32500
H300        H  0.01823276  0.55303131  0.74371587     0.35200
C301        C  0.00801707  0.64542511  0.52176592     0.20800
C302        C  0.00173632  0.64116828  0.47102705    -0.39100
C303        C  0.02563210  0.65709518  0.43981280     0.19800
C304        C  0.05370031  0.67555085  0.45779334     0.22400
C305        C  0.05991428  0.68006179  0.50853656    -0.39600
C306        C  0.03596720  0.66435915  0.53974743     0.21200
N307        N  0.98944414  0.63177719  0.55896656    -0.32800
C308        C  0.00567350  0.64225292  0.60087813    -0.10400
C309        C  0.03474859  0.66270228  0.59046606    -0.29200
N310        N  0.07297651  0.68599206  0.42069453    -0.45800
C311        C  0.05700814  0.67424649  0.37886647    -0.05100
C312        C  0.02737854  0.65636686  0.38918895    -0.22500
H313        H  0.98001396  0.62597478  0.45689900     0.19400
H314        H  0.08190293  0.69410383  0.52267885     0.18200
H315        H  0.05270691  0.67410878  0.61642777     0.14400
H316        H  0.00983766  0.64302630  0.36344473     0.14300
H317        H  0.96724420  0.61597524  0.55602766     0.32500
H318        H  0.09567980  0.69923462  0.42376123     0.35200
C319        C  0.05570556  0.67044203  0.02456768     0.20800
C320        C  0.06264484  0.67506422  0.97421954    -0.39100
C321        C  0.03875604  0.66218191  0.94137948     0.19800
C322        C  0.01023156  0.64559496  0.95764938     0.22400
C323        C  0.00328928  0.64111448  0.00792983    -0.39600
C324        C  0.02711947  0.65439212  0.04074806     0.21200
N325        N  0.07445027  0.67932956  0.06294331    -0.32800
C326        C  0.05770195  0.66909506  0.10381490    -0.10400
C327        C  0.02803151  0.65360894  0.09156489    -0.29200
N328        N  0.99158559  0.63426128  0.91931739    -0.45800
C329        C  0.00823291  0.64374880  0.87828446    -0.05100
C330        C  0.03781197  0.66145995  0.89039913    -0.22500
H331        H  0.08500296  0.68738350  0.96156047     0.19400
H332        H  0.98098892  0.62788728  0.02051952     0.18200
H333        H  0.00971617  0.64226228  0.11628397     0.14400
H334        H  0.05614783  0.67130112  0.86543654     0.14300
H335        H  0.09726101  0.69111991  0.06141059     0.32500
H336        H  0.96893515  0.62025830  0.92094701     0.35200
C337        C  0.20161584  0.79976998  0.24042866     0.20800
C338        C  0.21656572  0.83014361  0.24063865    -0.39100
C339        C  0.24728894  0.84454043  0.24144725     0.19800
C340        C  0.26184968  0.82975584  0.24231628     0.22400
C341        C  0.24699275  0.79958953  0.24203197    -0.39600
C342        C  0.21648137  0.78530004  0.24100763     0.21200
N343        N  0.17247322  0.78081892  0.24011239    -0.32800
C344        C  0.16910802  0.75426954  0.24063084    -0.10400
C345        C  0.19601963  0.75629596  0.24104356    -0.29200
N346        N  0.29088431  0.84813566  0.24347500    -0.45800
C347        C  0.29501665  0.87489805  0.24310080    -0.05100
C348        C  0.26839244  0.87364449  0.24176297    -0.22500
H349        H  0.20518231  0.84168794  0.24026379     0.19400
H350        H  0.25838438  0.78805058  0.24270630     0.18200
H351        H  0.20005473  0.73878275  0.24171979     0.14400
H352        H  0.26499367  0.89157124  0.24141753     0.14300
H353        H  0.15600221  0.78560172  0.24005414     0.32500
H354        H  0.30697308  0.84278372  0.24439596     0.35200
C355        C  0.03599430  0.35515645  0.44541437     0.20800
C356        C  0.01076059  0.34225120  0.47446852    -0.39100
C357        C  0.01552145  0.34491872  0.52567228     0.19800
C358        C  0.04328449  0.35917034  0.54648257     0.22400
C359        C  0.06853146  0.37235819  0.51742784    -0.39600
C360        C  0.06376901  0.36987225  0.46619312     0.21200
N361        N  0.03734903  0.35721919  0.39596003    -0.32800
C362        C  0.06616382  0.37380658  0.38530517    -0.10400
C363        C  0.08331789  0.38195459  0.42806968    -0.29200
N364        N  0.04187319  0.35978865  0.59598649    -0.45800
C365        C  0.01301479  0.34614755  0.60659303    -0.05100
C366        C  0.99592214  0.33651336  0.56376491    -0.22500
H367        H  0.98902511  0.33161311  0.45840389     0.19400
H368        H  0.09026165  0.38437275  0.53351216     0.18200
H369        H  0.10684693  0.39587889  0.43095894     0.14400
H370        H  0.97237050  0.32578383  0.56085778     0.14300
H371        H  0.01975299  0.34914505  0.37121326     0.32500
H372        H  0.05942826  0.36995170  0.62084488     0.35200
C373        C  0.06096631  0.36694376  0.02951159     0.20800
C374        C  0.06771768  0.36948729  0.97908435    -0.39100
C375        C  0.04376040  0.35776438  0.94645155     0.19800
C376        C  0.01525146  0.34466335  0.96289665     0.22400
C377        C  0.00845182  0.34154444  0.01336036    -0.39600
C378        C  0.03242447  0.35314340  0.04601857     0.21200
N379        N  0.07988599  0.37880124  0.06752486    -0.32800
C380        C  0.06334610  0.37240253  0.10857815    -0.10400
C381        C  0.03360513  0.35608366  0.09678888    -0.29200
N382        N  0.99667778  0.33799012  0.92470537    -0.45800
C383        C  0.01343272  0.34673264  0.88367773    -0.05100
C384        C  0.04289490  0.35885729  0.89564049    -0.22500
H385        H  0.09004502  0.38086987  0.96618714     0.19400
H386        H  0.98622205  0.33191732  0.02622055     0.18200
H387        H  0.01539264  0.34894539  0.12163100     0.14400
H388        H  0.06129395  0.36869244  0.87081161     0.14300
H389        H  0.10265551  0.39137679  0.06552748     0.32500
H390        H  0.97409581  0.32894428  0.92652268     0.35200
C391        C  0.10781772  0.56957506  0.25242661     0.20800
C392        C  0.12566397  0.55787887  0.24953376    -0.39100
C393        C  0.11107165  0.52765492  0.25047918     0.19800
C394        C  0.08097706  0.51038896  0.25427871     0.22400
C395        C  0.06308676  0.52209194  0.25715828    -0.39600
C396        C  0.07769858  0.55237430  0.25595913     0.21200
N397        N  0.11639213  0.59760660  0.25061955    -0.32800
C398        C  0.09161961  0.59838033  0.25258620    -0.10400
C399        C  0.06697776  0.57058164  0.25625211    -0.29200
N400        N  0.07245851  0.48231119  0.25404433    -0.45800
C401        C  0.09729046  0.48172043  0.24993092    -0.05100
C402        C  0.12183658  0.50958166  0.24760815    -0.22500
H403        H  0.14917977  0.57133664  0.24622965     0.19400
H404        H  0.03952832  0.50860866  0.25958159     0.18200
H405        H  0.04431963  0.56450936  0.25782822     0.14400
H406        H  0.14445802  0.51575144  0.24420711     0.14300
H407        H  0.13778372  0.61514922  0.24722789     0.32500
H408        H  0.05108196  0.46463051  0.25637572     0.35200
C409        C  0.63543820  0.78210436  0.26439762     0.20800
C410        C  0.61888499  0.79516858  0.26810597    -0.39100
C411        C  0.63483029  0.82544524  0.26787310     0.19800
C412        C  0.66499829  0.84155296  0.26418860     0.22400
C413        C  0.68158317  0.82846245  0.26038627    -0.39600
C414        C  0.66560968  0.79810744  0.26071264     0.21200
N415        N  0.62539538  0.75369286  0.26383124    -0.32800
C416        C  0.64926477  0.75145357  0.25983654    -0.10400
C417        C  0.67480902  0.77870895  0.25778038    -0.29200
N418        N  0.67487402  0.86998006  0.26461450    -0.45800
C419        C  0.65079251  0.87189640  0.26848969    -0.05100
C420        C  0.62542817  0.84459205  0.27064019    -0.22500
H421        H  0.59529579  0.78265842  0.27094106     0.19400
H422        H  0.70516259  0.84097948  0.25741249     0.18200
H423        H  0.69703370  0.78363137  0.25445364     0.14400
H424        H  0.60311599  0.83946949  0.27362373     0.14300
H425        H  0.60357059  0.73679643  0.26600032     0.32500
H426        H  0.69660315  0.88701699  0.26210077     0.35200
C427        C  0.26025811  0.40884316  0.24511161     0.20800
C428        C  0.24905814  0.42700493  0.24802526    -0.39100
C429        C  0.21850774  0.41309136  0.24844920     0.19800
C430        C  0.20042844  0.38332365  0.24611346     0.22400
C431        C  0.21166054  0.36510998  0.24327116    -0.39600
C432        C  0.24229790  0.37905435  0.24284285     0.21200
N433        N  0.28849774  0.41684780  0.24405338    -0.32800
C434        C  0.28868053  0.39207367  0.24113449    -0.10400
C435        C  0.26026201  0.36796463  0.24024053    -0.29200
N436        N  0.17215628  0.37553223  0.24617597    -0.45800
C437        C  0.17232693  0.40054325  0.24845960    -0.05100
C438        C  0.20082051  0.42440211  0.25013890    -0.22500
H439        H  0.26312572  0.45029336  0.24961725     0.19400
H440        H  0.19759748  0.34183521  0.24130286     0.18200
H441        H  0.25368232  0.34546037  0.23810669     0.14400
H442        H  0.20765064  0.44698887  0.25167289     0.14300
H443        H  0.30664239  0.43797919  0.24531730     0.32500
H444        H  0.15390026  0.35456137  0.24425642     0.35200
C445        C  0.52272482  0.56013036  0.22694568     0.20800
C446        C  0.49333376  0.54511613  0.21195940    -0.39100
C447        C  0.47737806  0.51559227  0.22256081     0.19800
C448        C  0.48972839  0.50199717  0.24625257     0.22400
C449        C  0.51916615  0.51701896  0.26128742    -0.39600
C450        C  0.53515645  0.54659914  0.25061420     0.21200
N451        N  0.54233597  0.58843902  0.22185187    -0.32800
C452        C  0.56743592  0.59296400  0.24235121    -0.10400
C453        C  0.56389972  0.56741146  0.26059938    -0.29200
N454        N  0.46971374  0.47389138  0.25275342    -0.45800
C455        C  0.44450959  0.46973598  0.23322961    -0.05100
C456        C  0.44840466  0.49516829  0.21396167    -0.22500
H457        H  0.48354339  0.55569749  0.19375005     0.19400
H458        H  0.52883468  0.50651538  0.28016367     0.18200
H459        H  0.58006950  0.56456002  0.27917772     0.14400
H460        H  0.43212593  0.49833986  0.19664398     0.14300
H461        H  0.53883713  0.60376540  0.20569154     0.32500
H462        H  0.47285478  0.45861633  0.27005457     0.35200
C463        C  0.82638139  0.63531874  0.75894800     0.20800
C464        C  0.85706510  0.65204069  0.75638362    -0.39100
C465        C  0.87116341  0.63641170  0.75403377     0.19800
C466        C  0.85573372  0.60650514  0.75427398     0.22400
C467        C  0.82523360  0.58988335  0.75702317    -0.39600
C468        C  0.81122872  0.60542404  0.75931750     0.23600
N469        N  0.80768049  0.64471087  0.75947598    -0.32800
C470        C  0.78059529  0.62054470  0.75987146    -0.10400
C471        C  0.78193783  0.59568455  0.76017829    -0.29200
N472        N  0.87383996  0.59664094  0.75072823    -0.45800
C473        C  0.90108004  0.62030449  0.74816556    -0.05100
C474        C  0.90045252  0.64563825  0.75026192    -0.22500
H475        H  0.86900324  0.67540030  0.75557458     0.19400
H476        H  0.81324883  0.56650862  0.75666004     0.18200
H477        H  0.76386936  0.57346150  0.75968120     0.14400
H478        H  0.91882007  0.66767331  0.74891376     0.14300
H479        H  0.81294911  0.66613394  0.75839533     0.32500
H480        H  0.86799424  0.57504126  0.74991243     0.35200
C481        C  0.67296616  0.67109718  0.47306743     0.20800
C482        C  0.66644910  0.67116481  0.52318843    -0.39100
C483        C  0.68295603  0.66564682  0.55649230     0.19800
C484        C  0.70428155  0.66040583  0.54090204     0.22400
C485        C  0.71101011  0.66064625  0.49078235    -0.39600
C486        C  0.69453055  0.66621247  0.45748520     0.21200
N487        N  0.65932874  0.67424534  0.43422517    -0.32800
C488        C  0.67238540  0.67156793  0.39358410    -0.10400
C489        C  0.69451430  0.66657870  0.40651344    -0.29200
N490        N  0.71477317  0.65286184  0.57914533    -0.45800
C491        C  0.69995257  0.65312075  0.61933042    -0.05100
C492        C  0.68020961  0.66143241  0.60684916    -0.22500
H493        H  0.64910721  0.67429556  0.53523293     0.19400
H494        H  0.72719793  0.65587920  0.47852713     0.18200
H495        H  0.70813601  0.66291990  0.38198485     0.14400
H496        H  0.66450349  0.66219932  0.63068481     0.14300
H497        H  0.64190154  0.67761499  0.43525079     0.32500
H498        H  0.72996000  0.64642469  0.57759281     0.35200
C499        C  0.70588079  0.65118660  0.97312463     0.20800
C500        C  0.70526437  0.64434749  0.02314327    -0.39100
C501        C  0.69645117  0.65836625  0.05594649     0.19800
C502        C  0.68857035  0.67749235  0.03993736     0.22400
C503        C  0.68950496  0.68457110  0.98998440    -0.39600
C504        C  0.69858807  0.67077498  0.95724090     0.21200
N505        N  0.71088028  0.63884639  0.93446054    -0.32800
C506        C  0.70678753  0.65065431  0.89372835    -0.10400
C507        C  0.69949733  0.67097758  0.90635086    -0.29200
N508        N  0.67854295  0.68595491  0.07763634    -0.45800
C509        C  0.68020070  0.67230062  0.11799450    -0.05100
C510        C  0.69151303  0.65507513  0.10609795    -0.22500
H511        H  0.71025589  0.62849523  0.03538894     0.19400
H512        H  0.68264040  0.69895814  0.97735112     0.18200
H513        H  0.69359540  0.68269364  0.88165119     0.14400
H514        H  0.69412217  0.64080733  0.13025635     0.14300
H515        H  0.71548865  0.62242962  0.93560476     0.32500
H516        H  0.67015265  0.69944173  0.07575940     0.35200
C517        C  0.41324588  0.21594815  0.73853003     0.20800
C518        C  0.39625691  0.18561789  0.73831991    -0.39100
C519        C  0.41185778  0.17155682  0.74210965     0.19800
C520        C  0.44206258  0.18664531  0.74581745     0.22400
C521        C  0.45903535  0.21693164  0.74598445    -0.39600
C522        C  0.44344896  0.23096138  0.74222503     0.21200
N523        N  0.40368208  0.23431244  0.73579714    -0.32800
C524        C  0.42794218  0.26116707  0.73789308    -0.10400
C525        C  0.45319514  0.25998945  0.74179154    -0.29200
N526        N  0.45170464  0.16840294  0.74891767    -0.45800
C527        C  0.42755658  0.14148006  0.74713522    -0.05100
C528        C  0.40220914  0.14249151  0.74287779    -0.22500
H529        H  0.37264553  0.17385512  0.73549064     0.19400
H530        H  0.48264635  0.22869722  0.74892768     0.18200
H531        H  0.47559933  0.27793319  0.74435342     0.14400
H532        H  0.37984800  0.12446139  0.74049105     0.14300
H533        H  0.38197903  0.22893363  0.73301772     0.32500
H534        H  0.47346376  0.17393180  0.75181478     0.35200
C535        C  0.37407879  0.35048294  0.53987872     0.20800
C536        C  0.36599550  0.36633179  0.51032362    -0.39100
C537        C  0.36457886  0.36097379  0.45929338     0.19800
C538        C  0.37040378  0.34107484  0.43910176     0.22400
C539        C  0.37859151  0.32528390  0.46865466    -0.39600
C540        C  0.38034717  0.33089354  0.51969789     0.21200
N541        N  0.37944605  0.35348846  0.58882895    -0.32800
C542        C  0.38970212  0.33608325  0.59983789    -0.10400
C543        C  0.39032834  0.32145686  0.55772886    -0.29200
N544        N  0.36931784  0.34132355  0.38942455    -0.45800
C545        C  0.36316113  0.36181914  0.37798398    -0.05100
C546        C  0.35994457  0.37443468  0.42057850    -0.22500
H547        H  0.36221099  0.38249191  0.52575529     0.19400
H548        H  0.38429734  0.31055517  0.45290885     0.18200
H549        H  0.39844494  0.30701885  0.55490539     0.14400
H550        H  0.35597105  0.39196856  0.42283446     0.14300
H551        H  0.37784909  0.36774039  0.61274028     0.32500
H552        H  0.37392141  0.32937249  0.36485535     0.35200
C553        C  0.36690703  0.35205696  0.02241283     0.20800
C554        C  0.35937467  0.34998268  0.97214588    -0.39100
C555        C  0.37493376  0.34265666  0.93981066     0.19800
C556        C  0.39658273  0.33809860  0.95635136     0.22400
C557        C  0.40392333  0.33990795  0.00665365    -0.39600
C558        C  0.38815313  0.34692609  0.03901324     0.21200
N559        N  0.35642434  0.36013678  0.06008518    -0.32800
C560        C  0.37090092  0.35993437  0.10105052    -0.10400
C561        C  0.39080076  0.35168399  0.08943165    -0.29200
N562        N  0.40963675  0.33359991  0.91808720    -0.45800
C563        C  0.39616391  0.33512677  0.87680568    -0.05100
C564        C  0.37418681  0.34049363  0.88887351    -0.22500
H565        H  0.34308321  0.35442470  0.95905087     0.19400
H566        H  0.42114609  0.33676698  0.01952428     0.18200
H567        H  0.40600741  0.35053524  0.11418003     0.14400
H568        H  0.36061238  0.34389873  0.86371162     0.14300
H569        H  0.34088150  0.36611219  0.05791206     0.32500
H570        H  0.42727736  0.33057117  0.91984356     0.35200
C571        C  0.59438904  0.49499532  0.73500969     0.20800
C572        C  0.58108169  0.46558571  0.72295024    -0.39100
C573        C  0.55073467  0.44891721  0.72941544     0.19800
C574        C  0.53489755  0.46066999  0.74658726     0.22400
C575        C  0.54821608  0.49005310  0.75877939    -0.39600
C576        C  0.57854614  0.50672515  0.75225398     0.21200
N577        N  0.62287967  0.51540858  0.73194907    -0.32800
C578        C  0.62513079  0.54026695  0.74727036    -0.10400
C579        C  0.59799138  0.53576494  0.76031179    -0.29200
N580        N  0.50638419  0.44031286  0.74942919    -0.45800
C581        C  0.50408041  0.41546029  0.73396532    -0.05100
C582        C  0.53124573  0.41988628  0.72127308    -0.22500
H583        H  0.59343145  0.45638302  0.70947909     0.19400
H584        H  0.53586663  0.49925605  0.77224711     0.18200
H585        H  0.59317286  0.55159925  0.77375794     0.14400
H586        H  0.53606172  0.40399368  0.70814248     0.14300
H587        H  0.63973973  0.51264266  0.72004478     0.32500
H588        H  0.48955613  0.44309062  0.76148133     0.35200
loop_ 
_geom_bond_atom_site_label_1 
_geom_bond_atom_site_label_2 
_geom_bond_distance 
_geom_bond_site_symmetry_2 
_ccdc_geom_bond_type 
In1           O3   2.258       .  S
In1           O4   2.278       .  S
In1          O12   2.249       .  S
In1           O6   2.239       .  S
In1           O8   2.249       .  S
In1           O9   2.276       .  S
In1          O10   2.249       .  S
In1          O13   2.251       .  S
C2            O8   1.258       .  A
C2           O10   1.258       .  A
C2          C581   1.465       .  S
O3           C11   1.257       .  A
O4           C11   1.261       .  A
C5           O12   1.264       .  A
C5            O6   1.261       .  A
C5          C524   1.470       .  S
C7            O9   1.263       .  A
C7           O13   1.257       .  A
C7          C563   1.477       .  S
C11         C542   1.478       .  S
In14         O16   2.233       .  S
In14         O17   2.261       .  S
In14         O25   2.250       .  S
In14         O19   2.223       .  S
In14         O21   2.246       .  S
In14         O22   2.268       .  S
In14         O23   2.250       .  S
In14         O26   2.251       .  S
C15          O21   1.258       .  A
C15          O23   1.259       .  A
C15         C578   1.465       .  S
O16          C24   1.257       .  A
O17          C24   1.262       .  A
C18          O25   1.264       .  A
C18          O19   1.261       .  A
C18         C470   1.466       .  S
C20          O22   1.260       .  A
C20          O26   1.257       .  A
C20         C491   1.472       .  S
C24         C506   1.467       .  S
In27         O29   2.238       .  S
In27         O30   2.273       .  S
In27         O38   2.257       .  S
In27         O32   2.228       .  S
In27         O34   2.244       .  S
In27         O35   2.255       .  S
In27         O36   2.249       .  S
In27         O39   2.267       .  S
C28          O34   1.258       .  A
C28          O36   1.257       .  A
C28         C455   1.464       .  S
O29          C37   1.258       .  A
O30          C37   1.264       .  A
C31          O38   1.265       .  A
C31          O32   1.262       .  A
C31         C434   1.471       .  S
C33          O35   1.257       .  A
C33          O39   1.260       .  A
C33         C560   1.475       .  S
C37         C545   1.475       .  S
In40         O42   2.246       .  S
In40         O43   2.265       .  S
In40         O51   2.257       .  S
In40         O45   2.243       .  S
In40         O47   2.256       .  S
In40         O48   2.260       .  S
In40         O49   2.246       .  S
In40         O52   2.236       .  S
C41          O47   1.259       .  A
C41          O49   1.256       .  A
C41         C452   1.467       .  S
O42          C50   1.257       .  A
O43          C50   1.261       .  A
C44          O51   1.264       .  A
C44          O45   1.262       .  A
C44         C416   1.474       .  S
C46          O48   1.264       .  A
C46          O52   1.260       .  A
C46         C488   1.471       .  S
C50         C509   1.470       .  S
In53         O55   2.249       .  S
In53         O56   2.264       .  S
In53         O64   2.257       .  S
In53         O58   2.240       .  S
In53         O60   2.260       .  S
In53         O61   2.264       .  S
In53         O62   2.255       .  S
In53         O65   2.240       .  S
C54          O60   1.259       .  A
C54          O62   1.257       .  A
C54         C401   1.472       .  S
O55          C63   1.259       .  A
O56          C63   1.261       .  A
C57          O64   1.263       .  A
C57          O58   1.262       .  A
C57         C437   1.472       .  S
C59          O61   1.261       .  A
C59          O65   1.258       .  A
C59         C362   1.470       .  S
C63         C380   1.472       .  S
In66         O68   2.248       .  S
In66         O69   2.251       .  S
In66         O77   2.275       .  S
In66         O71   2.215       .  S
In66         O73   2.256       .  S
In66         O74   2.264       .  S
In66         O75   2.271       .  S
In66         O78   2.246       .  S
C67          O73   1.256       .  A
C67          O75   1.257       .  A
C67         C398   1.473       .  S
O68          C76   1.257       .  A
O69          C76   1.260       .  A
C70          O77   1.265       .  A
C70          O71   1.261       .  A
C70         C344   1.472       .  S
C72          O74   1.260       .  A
C72          O78   1.257       .  A
C72         C326   1.469       .  S
C76         C311   1.466       .  S
In79         O81   2.244       .  S
In79         O82   2.265   1_655  S
In79         O90   2.263       .  S
In79         O84   2.221       .  S
In79         O86   2.250       .  S
In79         O87   2.265   1_655  S
In79         O88   2.263   1_655  S
In79         O91   2.236       .  S
C80          O86   1.256       .  A
C80          O88   1.259   1_655  A
C80         C290   1.470       .  S
O81          C89   1.257   1_655  A
O82          C89   1.262       .  A
C83          O90   1.264       .  A
C83          O84   1.260       .  A
C83         C272   1.468       .  S
C85          O87   1.261       .  A
C85          O91   1.257   1_455  A
C85         C365   1.469       .  S
C89         C383   1.471       .  S
In92         O94   2.246       .  S
In92         O95   2.251   1_655  S
In92        O103   2.259       .  S
In92         O97   2.219       .  S
In92         O99   2.258       .  S
In92        O100   2.265   1_655  S
In92        O101   2.240       .  S
In92        O104   2.227       .  S
C93          O99   1.259       .  A
C93         O101   1.258       .  A
C93         C293   1.468       .  S
O94         C102   1.258       .  A
O95         C102   1.261   1_455  A
C96         O103   1.263       .  A
C96          O97   1.260       .  A
C96         C473   1.466       .  S
C98         O100   1.263   1_655  A
C98         O104   1.258       .  A
C98         C329   1.468   1_655  S
C102        C308   1.468   1_655  S
In105       O107   2.254       .  S
In105       O108   2.265       .  S
In105       O116   2.241       .  S
In105       O110   2.224       .  S
In105       O112   2.253       .  S
In105       O113   2.242       .  S
In105       O114   2.251       .  S
In105       O117   2.270       .  S
C106        O112   1.258       .  A
C106        O114   1.258       .  A
C106        C257   1.468       .  S
O107        C115   1.257       .  A
O108        C115   1.261       .  A
C109        O116   1.264       .  A
C109        O110   1.262       .  A
C109        C275   1.464       .  S
C111        O113   1.256       .  A
C111        O117   1.261       .  A
C111        C218   1.471       .  S
C115        C239   1.474       .  S
In118       O120   2.249       .  S
In118       O121   2.266       .  S
In118       O129   2.255       .  S
In118       O123   2.229       .  S
In118       O125   2.258       .  S
In118       O126   2.264       .  S
In118       O127   2.247       .  S
In118       O130   2.242       .  S
C119        O125   1.259       .  A
C119        O127   1.257       .  A
C119        C254   1.468       .  S
O120        C128   1.259       .  A
O121        C128   1.262       .  A
C122        O129   1.265       .  A
C122        O123   1.262       .  A
C122        C527   1.470       .  S
C124        O126   1.262       .  A
C124        O130   1.258       .  A
C124        C185   1.472       .  S
C128        C203   1.475       .  S
In131       O133   2.250       .  S
In131       O134   2.269       .  S
In131       O142   2.247       .  S
In131       O136   2.229       .  S
In131       O138   2.258       .  S
In131       O139   2.259       .  S
In131       O140   2.253       .  S
In131       O143   2.264       .  S
C132        O138   1.257       .  A
C132        O140   1.258       .  A
C132        C164   1.469       .  S
O133        C141   1.258       .  A
O134        C141   1.261       .  A
C135        O142   1.263       .  A
C135        O136   1.262       .  A
C135        C347   1.467       .  S
C137        O139   1.257       .  A
C137        O143   1.260       .  A
C137        C182   1.474       .  S
C141        C200   1.474       .  S
In144       O146   2.240       .  S
In144       O147   2.276       .  S
In144       O155   2.253       .  S
In144       O149   2.231       .  S
In144       O151   2.251       .  S
In144       O152   2.270       .  S
In144       O153   2.248       .  S
In144       O156   2.246       .  S
C145        O151   1.258       .  A
C145        O153   1.258       .  A
C145        C167   1.467       .  S
O146        C154   1.258       .  A
O147        C154   1.263       .  A
C148        O155   1.265       .  A
C148        O149   1.262       .  A
C148        C419   1.471       .  S
C150        O152   1.260       .  A
C150        O156   1.256       .  A
C150        C221   1.471       .  S
C154        C236   1.476       .  S
C157        C162   1.385       .  A
C157        C158   1.401       .  A
C157        N163   1.342       .  A
C158        C159   1.400       .  A
C158        H169   1.082   1_565  S
C159        C168   1.376       .  A
C159        C160   1.385       .  A
C160        C161   1.405       .  A
C160        N166   1.344       .  A
C161        C162   1.404       .  A
C161        H170   1.082       .  S
C162        C165   1.380       .  A
N163        C164   1.354       .  A
N163        H173   1.044       .  S
C164        C165   1.396       .  A
C165        H171   1.082       .  S
N166        C167   1.356       .  A
N166        H174   1.045       .  S
C167        C168   1.393       .  A
C168        H172   1.082       .  S
C175        C180   1.385   1_545  A
C175        C176   1.404       .  A
C175        N181   1.345       .  A
C176        C177   1.403       .  A
C176        H187   1.082       .  S
C177        C186   1.378       .  A
C177        C178   1.385       .  A
C178        C179   1.405   1_545  A
C178        N184   1.346       .  A
C179        C180   1.405       .  A
C179        H188   1.082       .  S
C180        C183   1.380       .  A
N181        C182   1.355   1_545  A
N181        H191   1.045       .  S
C182        C183   1.396       .  A
C183        H189   1.082       .  S
N184        C185   1.355       .  A
N184        H192   1.045   1_545  S
C185        C186   1.395       .  A
C186        H190   1.083       .  S
C193        C198   1.384   1_565  A
C193        C194   1.406   1_554  A
C193        N199   1.345       .  A
C194        C195   1.405   1_565  A
C194        H205   1.082       .  S
C195        C204   1.382       .  A
C195        C196   1.384       .  A
C196        C197   1.406   1_556  A
C196        N202   1.344       .  A
C197        C198   1.404       .  A
C197        H206   1.082       .  S
C198        C201   1.382       .  A
N199        C200   1.356       .  A
N199        H209   1.045       .  S
C200        C201   1.395   1_565  A
C201        H207   1.082       .  S
N202        C203   1.356       .  A
N202        H210   1.044       .  S
C203        C204   1.396       .  A
C204        H208   1.082   1_545  S
C211        C216   1.385       .  A
C211        C212   1.403   1_546  A
C211        N217   1.345       .  A
C212        C213   1.403       .  A
C212        H223   1.082   1_554  S
C213        C222   1.377       .  A
C213        C214   1.385   1_565  A
C214        C215   1.404       .  A
C214        N220   1.346       .  A
C215        C216   1.404   1_554  A
C215        H224   1.082       .  S
C216        C219   1.377       .  A
N217        C218   1.355       .  A
N217        H227   1.045   1_545  S
C218        C219   1.395       .  A
C219        H225   1.082       .  S
N220        C221   1.356   1_545  A
N220        H228   1.045       .  S
C221        C222   1.394       .  A
C222        H226   1.082       .  S
C229        C234   1.384   1_565  A
C229        C230   1.404       .  A
C229        N235   1.343       .  A
C230        C231   1.402       .  A
C230        H241   1.082       .  S
C231        C240   1.380       .  A
C231        C232   1.384   1_565  A
C232        C233   1.408       .  A
C232        N238   1.346       .  A
C233        C234   1.407       .  A
C233        H242   1.082       .  S
C234        C237   1.385       .  A
N235        C236   1.355       .  A
N235        H245   1.045       .  S
C236        C237   1.397   1_565  A
C237        H243   1.082       .  S
N238        C239   1.358       .  A
N238        H246   1.044       .  S
C239        C240   1.394   1_545  A
C240        H244   1.082       .  S
C247        C252   1.385       .  A
C247        C248   1.404       .  A
C247        N253   1.344       .  A
C248        C249   1.403       .  A
C248        H259   1.082       .  S
C249        C258   1.379       .  A
C249        C250   1.385       .  A
C250        C251   1.402       .  A
C250        N256   1.342       .  A
C251        C252   1.401       .  A
C251        H260   1.082       .  S
C252        C255   1.377       .  A
N253        C254   1.355       .  A
N253        H263   1.045       .  S
C254        C255   1.394       .  A
C255        H261   1.082       .  S
N256        C257   1.354       .  A
N256        H264   1.044       .  S
C257        C258   1.395       .  A
C258        H262   1.082       .  S
C265        C270   1.385       .  A
C265        C266   1.405       .  A
C265        N271   1.346       .  A
C266        C267   1.405       .  A
C266        H277   1.082       .  S
C267        C276   1.380       .  A
C267        C268   1.385       .  A
C268        C269   1.399       .  A
C268        N274   1.340       .  A
C269        C270   1.399       .  A
C269        H278   1.083       .  S
C270        C273   1.372       .  A
N271        C272   1.356       .  A
N271        H281   1.045       .  S
C272        C273   1.392       .  A
C273        H279   1.082       .  S
N274        C275   1.353       .  A
N274        H282   1.047       .  S
C275        C276   1.395       .  A
C276        H280   1.082       .  S
C283        C288   1.384       .  A
C283        C284   1.406       .  A
C283        N289   1.344       .  A
C284        C285   1.405       .  A
C284        H295   1.082       .  S
C285        C294   1.382       .  A
C285        C286   1.385       .  A
C286        C287   1.402   1_655  A
C286        N292   1.341       .  A
C287        C288   1.400   1_455  A
C287        H296   1.082       .  S
C288        C291   1.378   1_655  A
N289        C290   1.357       .  A
N289        H299   1.045       .  S
C290        C291   1.393   1_655  A
C291        H297   1.082       .  S
N292        C293   1.353       .  A
N292        H300   1.044   1_655  S
C293        C294   1.396       .  A
C294        H298   1.082       .  S
C301        C306   1.385       .  A
C301        C302   1.403       .  A
C301        N307   1.343   1_455  A
C302        C303   1.402       .  A
C302        H313   1.082   1_455  S
C303        C312   1.377       .  A
C303        C304   1.385       .  A
C304        C305   1.403       .  A
C304        N310   1.343       .  A
C305        C306   1.402       .  A
C305        H314   1.082       .  S
C306        C309   1.378       .  A
N307        C308   1.355   1_655  A
N307        H317   1.044       .  S
C308        C309   1.393       .  A
C309        H315   1.082       .  S
N310        C311   1.355       .  A
N310        H318   1.044       .  S
C311        C312   1.393       .  A
C312        H316   1.082       .  S
C319        C324   1.385       .  A
C319        C320   1.405   1_554  A
C319        N325   1.343       .  A
C320        C321   1.403       .  A
C320        H331   1.082       .  S
C321        C330   1.382       .  A
C321        C322   1.385       .  A
C322        C323   1.403   1_556  A
C322        N328   1.341   1_455  A
C323        C324   1.401       .  A
C323        H332   1.082   1_455  S
C324        C327   1.380       .  A
N325        C326   1.355       .  A
N325        H335   1.045       .  S
C326        C327   1.394       .  A
C327        H333   1.082       .  S
N328        C329   1.354   1_655  A
N328        H336   1.045       .  S
C329        C330   1.395       .  A
C330        H334   1.082       .  S
C337        C342   1.385       .  A
C337        C338   1.408       .  A
C337        N343   1.349       .  A
C338        C339   1.408       .  A
C338        H349   1.082       .  S
C339        C348   1.381       .  A
C339        C340   1.385       .  A
C340        C341   1.398       .  A
C340        N346   1.340       .  A
C341        C342   1.398       .  A
C341        H350   1.083       .  S
C342        C345   1.370       .  A
N343        C344   1.358       .  A
N343        H353   1.045       .  S
C344        C345   1.391       .  A
C345        H351   1.082       .  S
N346        C347   1.353       .  A
N346        H354   1.047       .  S
C347        C348   1.396       .  A
C348        H352   1.082       .  S
C355        C360   1.385       .  A
C355        C356   1.403       .  A
C355        N361   1.345       .  A
C356        C357   1.403       .  A
C356        H367   1.082   1_455  S
C357        C366   1.376   1_455  A
C357        C358   1.385       .  A
C358        C359   1.403       .  A
C358        N364   1.345       .  A
C359        C360   1.404       .  A
C359        H368   1.082       .  S
C360        C363   1.377       .  A
N361        C362   1.355       .  A
N361        H371   1.045       .  S
C362        C363   1.395       .  A
C363        H369   1.082       .  S
N364        C365   1.355       .  A
N364        H372   1.045       .  S
C365        C366   1.394   1_455  A
C366        H370   1.082       .  S
C373        C378   1.385       .  A
C373        C374   1.404   1_554  A
C373        N379   1.344       .  A
C374        C375   1.403       .  A
C374        H385   1.082       .  S
C375        C384   1.380       .  A
C375        C376   1.385       .  A
C376        C377   1.405   1_556  A
C376        N382   1.344   1_455  A
C377        C378   1.404       .  A
C377        H386   1.082   1_455  S
C378        C381   1.381       .  A
N379        C380   1.355       .  A
N379        H389   1.044       .  S
C380        C381   1.395       .  A
C381        H387   1.082       .  S
N382        C383   1.356   1_655  A
N382        H390   1.044       .  S
C383        C384   1.394       .  A
C384        H388   1.082       .  S
C391        C396   1.385       .  A
C391        C392   1.404       .  A
C391        N397   1.343       .  A
C392        C393   1.402       .  A
C392        H403   1.082       .  S
C393        C402   1.379       .  A
C393        C394   1.384       .  A
C394        C395   1.406       .  A
C394        N400   1.345       .  A
C395        C396   1.405       .  A
C395        H404   1.082       .  S
C396        C399   1.382       .  A
N397        C398   1.355       .  A
N397        H407   1.045       .  S
C398        C399   1.397       .  A
C399        H405   1.082       .  S
N400        C401   1.356       .  A
N400        H408   1.044       .  S
C401        C402   1.394       .  A
C402        H406   1.082       .  S
C409        C414   1.385       .  A
C409        C410   1.403       .  A
C409        N415   1.343       .  A
C410        C411   1.402       .  A
C410        H421   1.082       .  S
C411        C420   1.377       .  A
C411        C412   1.385       .  A
C412        C413   1.406       .  A
C412        N418   1.346       .  A
C413        C414   1.406       .  A
C413        H422   1.082       .  S
C414        C417   1.382       .  A
N415        C416   1.355       .  A
N415        H425   1.046       .  S
C416        C417   1.397       .  A
C417        H423   1.082       .  S
N418        C419   1.356       .  A
N418        H426   1.045       .  S
C419        C420   1.394       .  A
C420        H424   1.083       .  S
C427        C432   1.385       .  A
C427        C428   1.403       .  A
C427        N433   1.342       .  A
C428        C429   1.401       .  A
C428        H439   1.083       .  S
C429        C438   1.377       .  A
C429        C430   1.384       .  A
C430        C431   1.406       .  A
C430        N436   1.346       .  A
C431        C432   1.405       .  A
C431        H440   1.082       .  S
C432        C435   1.382       .  A
N433        C434   1.354       .  A
N433        H443   1.047       .  S
C434        C435   1.396       .  A
C435        H441   1.082       .  S
N436        C437   1.357       .  A
N436        H444   1.044       .  S
C437        C438   1.394       .  A
C438        H442   1.082       .  S
C445        C450   1.385       .  A
C445        C446   1.401       .  A
C445        N451   1.342       .  A
C446        C447   1.400       .  A
C446        H457   1.082       .  S
C447        C456   1.375       .  A
C447        C448   1.385       .  A
C448        C449   1.403       .  A
C448        N454   1.343       .  A
C449        C450   1.403       .  A
C449        H458   1.082       .  S
C450        C453   1.378       .  A
N451        C452   1.354       .  A
N451        H461   1.045       .  S
C452        C453   1.395       .  A
C453        H459   1.082       .  S
N454        C455   1.355       .  A
N454        H462   1.044       .  S
C455        C456   1.392       .  A
C456        H460   1.082       .  S
C463        C468   1.385       .  A
C463        C464   1.406       .  A
C463        N469   1.345       .  A
C464        C465   1.406       .  A
C464        H475   1.082       .  S
C465        C474   1.383       .  A
C465        C466   1.385       .  A
C466        C467   1.398       .  A
C466        N472   1.338       .  A
C467        C468   1.397       .  A
C467        H476   1.083       .  S
C468        C471   1.372       .  A
N469        C470   1.356       .  A
N469        H479   1.046       .  S
C470        C471   1.391       .  A
C471        H477   1.083       .  S
N472        C473   1.352       .  A
N472        H480   1.045       .  S
C473        C474   1.397       .  A
C474        H478   1.082       .  S
C481        C486   1.384       .  A
C481        C482   1.404       .  A
C481        N487   1.343       .  A
C482        C483   1.403       .  A
C482        H493   1.082       .  S
C483        C492   1.381       .  A
C483        C484   1.385       .  A
C484        C485   1.405       .  A
C484        N490   1.344       .  A
C485        C486   1.403       .  A
C485        H494   1.082       .  S
C486        C489   1.382       .  A
N487        C488   1.355       .  A
N487        H497   1.045       .  S
C488        C489   1.395       .  A
C489        H495   1.082       .  S
N490        C491   1.356       .  A
N490        H498   1.044       .  S
C491        C492   1.395       .  A
C492        H496   1.082       .  S
C499        C504   1.385       .  A
C499        C500   1.404   1_556  A
C499        N505   1.342       .  A
C500        C501   1.403       .  A
C500        H511   1.082       .  S
C501        C510   1.381       .  A
C501        C502   1.385       .  A
C502        C503   1.404   1_554  A
C502        N508   1.343       .  A
C503        C504   1.402       .  A
C503        H512   1.082       .  S
C504        C507   1.380       .  A
N505        C506   1.355       .  A
N505        H515   1.045       .  S
C506        C507   1.394       .  A
C507        H513   1.082       .  S
N508        C509   1.355       .  A
N508        H516   1.045       .  S
C509        C510   1.395       .  A
C510        H514   1.082       .  S
C517        C522   1.385       .  A
C517        C518   1.405       .  A
C517        N523   1.344       .  A
C518        C519   1.404       .  A
C518        H529   1.082       .  S
C519        C528   1.382       .  A
C519        C520   1.385       .  A
C520        C521   1.403       .  A
C520        N526   1.342       .  A
C521        C522   1.402       .  A
C521        H530   1.082       .  S
C522        C525   1.378       .  A
N523        C524   1.355       .  A
N523        H533   1.045       .  S
C524        C525   1.395       .  A
C525        H531   1.083       .  S
N526        C527   1.355       .  A
N526        H534   1.046       .  S
C527        C528   1.396       .  A
C528        H532   1.082       .  S
C535        C540   1.385       .  A
C535        C536   1.405       .  A
C535        N541   1.347       .  A
C536        C537   1.405       .  A
C536        H547   1.082       .  S
C537        C546   1.378       .  A
C537        C538   1.384       .  A
C538        C539   1.406       .  A
C538        N544   1.348       .  A
C539        C540   1.406       .  A
C539        H548   1.082       .  S
C540        C543   1.381       .  A
N541        C542   1.356       .  A
N541        H551   1.044       .  S
C542        C543   1.397       .  A
C543        H549   1.082       .  S
N544        C545   1.356       .  A
N544        H552   1.044       .  S
C545        C546   1.395       .  A
C546        H550   1.082       .  S
C553        C558   1.384       .  A
C553        C554   1.406   1_554  A
C553        N559   1.345       .  A
C554        C555   1.405       .  A
C554        H565   1.082       .  S
C555        C564   1.383       .  A
C555        C556   1.384       .  A
C556        C557   1.406   1_556  A
C556        N562   1.345       .  A
C557        C558   1.404       .  A
C557        H566   1.082       .  S
C558        C561   1.382       .  A
N559        C560   1.357       .  A
N559        H569   1.045       .  S
C560        C561   1.396       .  A
C561        H567   1.082       .  S
N562        C563   1.357       .  A
N562        H570   1.045       .  S
C563        C564   1.396       .  A
C564        H568   1.082       .  S
C571        C576   1.385       .  A
C571        C572   1.403       .  A
C571        N577   1.342       .  A
C572        C573   1.402       .  A
C572        H583   1.082       .  S
C573        C582   1.377       .  A
C573        C574   1.385       .  A
C574        C575   1.402       .  A
C574        N580   1.342       .  A
C575        C576   1.401       .  A
C575        H584   1.082       .  S
C576        C579   1.377       .  A
N577        C578   1.355       .  A
N577        H587   1.045       .  S
C578        C579   1.393       .  A
C579        H585   1.082       .  S
N580        C581   1.354       .  A
N580        H588   1.045       .  S
C581        C582   1.394       .  A
C582        H586   1.082       .  S
