geometry optimzed in LAMMPS
_audit_creation_date              2020-11-30 
_audit_creation_method            'lammps2cif' 
_symmetry_space_group_name_H-M    'P1' 
_symmetry_Int_Tables_number       1 
_symmetry_cell_setting            triclinic 
loop_ 
_symmetry_equiv_pos_as_xyz 
  x,y,z 
_cell_length_a                    55.24190826 
_cell_length_b                    29.811402469468625 
_cell_length_c                    43.82762890592123 
_cell_angle_alpha                 89.90321645018577 
_cell_angle_beta                  89.4976497271472 
_cell_angle_gamma                 121.84686569300757 
loop_ 
_atom_site_label 
_atom_site_type_symbol 
_atom_site_fract_x 
_atom_site_fract_y 
_atom_site_fract_z 
_atom_site_charge 
C1          C  0.42912553  0.72956769  0.37202400     0.80000
N2          N  0.44362709  0.70804792  0.36024942    -0.78300
C3          C  0.43166293  0.67025530  0.33842336     0.82400
N4          N  0.40495886  0.65356328  0.32889907    -0.78300
C5          C  0.39001141  0.67393921  0.34062320     0.82500
N6          N  0.40216173  0.71194608  0.36232418    -0.80000
C7          C  0.34595570  0.88381216  0.22520542     0.80000
N8          N  0.33405747  0.83274862  0.23393484    -0.78300
C9          C  0.31188758  0.81004339  0.25403256     0.82400
N10         N  0.30078426  0.83829634  0.26476084    -0.78300
C11         C  0.31206318  0.88934789  0.25571775     0.82500
N12         N  0.33472636  0.91169562  0.23613312    -0.80000
C13         C  0.14222038  0.18547459  0.35259745     0.80000
N14         N  0.15515354  0.23617093  0.34256189    -0.78300
C15         C  0.17886762  0.25711470  0.32454146     0.82400
N16         N  0.19027818  0.22755053  0.31744299    -0.78300
C17         C  0.17785275  0.17718436  0.32822497     0.82500
N18         N  0.15388101  0.15672608  0.34551411    -0.80000
C19         C  0.26060440  0.58679915  0.27747195     0.02000
C20         C  0.27536091  0.56772270  0.29391089     0.02000
C21         C  0.26150690  0.51358043  0.30072800    -0.18500
C22         C  0.23319405  0.47810634  0.29211005     0.02000
C23         C  0.21851045  0.49712714  0.27552300     0.02000
C24         C  0.23238446  0.55119624  0.26860336    -0.18500
H25         H  0.22064556  0.56591291  0.25705467     0.04000
H26         H  0.27293651  0.49889815  0.31298179     0.04000
C27         C  0.06308767  0.32649900  0.20109735     0.80000
N28         N  0.04773821  0.34652581  0.21228016    -0.78300
C29         C  0.05914377  0.38530656  0.23346896     0.82400
N30         N  0.08606214  0.40419824  0.24313663    -0.78300
C31         C  0.10184490  0.38479666  0.23226482     0.82500
N32         N  0.09012702  0.34568432  0.21108108    -0.80000
C33         C  0.06099643  0.86292524  0.21012404     0.80000
N34         N  0.04649149  0.81213089  0.22039380    -0.78300
C35         C  0.05799407  0.79614677  0.24190317     0.82400
N36         N  0.08430063  0.83129226  0.25268099    -0.78300
C37         C  0.09922541  0.88210818  0.24254557     0.82500
N38         N  0.08745917  0.89763660  0.22104717    -0.80000
C39         C  0.42718452  0.19669130  0.37569747     0.80000
N40         N  0.44173009  0.24623135  0.36353852    -0.78300
C41         C  0.42904706  0.26156344  0.34309655     0.82400
N42         N  0.40197721  0.22625333  0.33430100    -0.78300
C43         C  0.38745420  0.17646931  0.34591186     0.82500
N44         N  0.39996699  0.16201242  0.36699357    -0.80000
C45         C  0.48307334  0.55595181  0.29418591     0.02000
C46         C  0.00403567  0.57514292  0.27538243     0.02000
C47         C  0.01457240  0.54453018  0.26428681    -0.18500
C48         C  0.00220334  0.49154949  0.27332734     0.02000
C49         C  0.48173322  0.47274371  0.29214712     0.02000
C50         C  0.47117183  0.50327556  0.30346057    -0.18500
H51         H  0.45345486  0.48575293  0.31955598     0.04000
H52         H  0.03290521  0.56231965  0.24901374     0.04000
C53         C  0.27008256  0.04765833  0.31015829     0.02000
C54         C  0.25619580  0.99832029  0.29525134     0.02000
C55         C  0.22808770  0.97640477  0.28542614    -0.18500
C56         C  0.21375126  0.00319789  0.28949787     0.02000
C57         C  0.22805790  0.05333167  0.30324159     0.02000
C58         C  0.25586665  0.07472995  0.31368743    -0.18500
H59         H  0.26673864  0.11335771  0.32422807     0.04000
H60         H  0.21743896  0.93855182  0.27400824     0.04000
Zr61       Zr  0.00152353  0.03065119  0.09943976     2.17500
O62         O  0.03181869  0.05325326  0.14409637    -0.51600
O63         O  0.45471704  0.98918007  0.12988474    -0.74800
O64         O  0.01202850  0.11298326  0.12285643    -0.81600
O65         O  0.01406588  0.91743291  0.08713609    -0.83300
O66         O  0.00943420  0.16498929  0.08669791    -0.78900
O67         O  0.01238588  0.97000185  0.12360013    -0.90600
O68         O  0.41631022  0.95792644  0.09918681    -0.76500
O69         O  0.46593335  0.04854919  0.07229482    -0.86000
O70         O  0.46478804  0.95047372  0.07370043    -0.85700
O71         O  0.03060358  0.10239577  0.06459619    -0.72500
O72         O  0.02935845  0.01276151  0.06502094    -0.84600
Zr73       Zr  0.49054605  0.02162690  0.47620035     2.26400
Zr74       Zr  0.49493236  0.11801905  0.03638742     2.06300
Zr75       Zr  0.49242557  0.93246186  0.03898206     2.10000
Zr76       Zr  0.43335696  0.96838609  0.04714243     1.78800
O77         O  0.02981489  0.90630868  0.02690423    -0.93400
O78         O  0.40374411  0.00653698  0.04588495    -0.41200
O79         O  0.46000049  0.94837301  0.01241161    -0.77900
O80         O  0.46079293  0.03776995  0.01121822    -0.96600
O81         O  0.02500122  0.09995602  0.00347604    -0.89900
O82         O  0.02426053  0.00258580  0.00416153    -0.92700
C83         C  0.42784978  0.96710060  0.12547313     1.01100
C84         C  0.01720306  0.93442058  0.11466283     1.14000
C85         C  0.01402279  0.15591447  0.11408279     1.04800
O86         O  0.46180640  0.14680735  0.04660071    -0.94900
O87         O  0.48291208  0.14137168  0.48813103    -0.90600
O88         O  0.47905063  0.08249690  0.45261891    -0.83700
C89         C  0.47740247  0.12204367  0.46113463     1.11400
O90         O  0.09358460  0.11325248  0.06820979    -0.96800
Zr91       Zr  0.05698029  0.08272491  0.02924410     1.88900
O92         O  0.03174008  0.06466977  0.44430675    -0.73500
O93         O  0.03530893  0.20836305  0.02720721    -0.52700
O94         O  0.08963768  0.17820957  0.02846097    -0.97400
O95         O  0.08625876  0.04445968  0.02230396    -0.54600
O96         O  0.07003722  0.11258421  0.47468441    -0.74000
C97         C  0.05821218  0.09884734  0.44853075     0.98400
O98         O  0.46062136  0.98466066  0.43133976    -0.62800
O99         O  0.45700746  0.84195984  0.05408833    -0.57600
O100        O  0.47862585  0.93798050  0.45353887    -0.94300
O101        O  0.47924110  0.88485377  0.49053375    -0.92700
O102        O  0.40135646  0.87346066  0.05386403    -0.93100
O103        O  0.39564601  0.92767684  0.00949025    -0.91900
C104        C  0.47487460  0.89397775  0.46310833     1.17200
H105        H  0.45466785  0.92206093  0.08830112     0.33100
H106        H  0.44725850  0.04233132  0.00006334     0.44000
H107        H  0.03143742  0.99120285  0.48771173     0.37500
H108        H  0.04437050  0.13347711  0.07555061     0.34000
H109        H  0.38552876  0.97970667  0.05572206     0.25800
H110        H  0.02653971  0.22945591  0.03118693     0.31700
H111        H  0.10770912  0.18389232  0.01991577     0.37600
H112        H  0.41070767  0.85781208  0.04255984     0.32100
H113        H  0.46602792  0.82158886  0.04923727     0.31000
H114        H  0.01803229  0.86962903  0.01944668     0.32600
H115        H  0.08529693  0.03636764  0.00029485     0.31600
H116        H  0.40442793  0.94810114  0.99047017     0.35600
H117        H  0.44329989  0.98565495  0.43575899     0.28300
H118        H  0.02135388  0.05783879  0.16104046     0.32600
H119        H  0.11183520  0.12626173  0.05713293     0.35400
H120        H  0.45626316  0.84210293  0.07666489     0.28000
H121        H  0.47064217  0.01066252  0.41464565     0.40900
H122        H  0.44519407  0.12433290  0.03354423     0.31000
H123        H  0.41258778  0.03590264  0.06064866     0.38600
H124        H  0.07850461  0.01564377  0.52123503     0.30400
H125        H  0.04926759  0.21808223  0.04377415     0.30500
H126        H  0.04859139  0.08896979  0.13995016     0.30800
C127        C  0.46467215  0.17828813  0.38909302    -0.20600
C128        C  0.44086081  0.18036418  0.39815750    -0.07100
C129        C  0.43007617  0.16564350  0.42821877     0.13700
C130        C  0.44323398  0.14870834  0.44847947    -0.20600
C131        C  0.46631852  0.14444841  0.43913689    -0.07100
C132        C  0.47727949  0.15961886  0.40908344     0.13700
C133        C  0.00330067  0.15563300  0.39893296    -0.24000
H134        H  0.47291392  0.18993729  0.36600901     0.15000
H135        H  0.43485410  0.13704226  0.47152223     0.15000
C136        C  0.40484936  0.16817207  0.43904995    -0.23900
H137        H  0.00997297  0.17126822  0.37532905     0.05300
H138        H  0.99791877  0.11413045  0.39904688     0.08500
H139        H  0.02161531  0.17953086  0.41422267     0.08500
H140        H  0.38570928  0.14051723  0.42572335     0.08500
H141        H  0.40943001  0.20896105  0.43615208     0.08500
H142        H  0.39985889  0.15703179  0.46352379     0.05200
C143        C  0.33655361  0.11458172  0.35898184    -0.20600
C144        C  0.35786188  0.13913456  0.33642137    -0.07100
C145        C  0.35033361  0.12983744  0.30530898     0.13700
C146        C  0.32158502  0.09739450  0.29753943    -0.20600
C147        C  0.30014547  0.07453539  0.32000407    -0.07100
C148        C  0.30766367  0.08349593  0.35116694     0.13700
C149        C  0.28535010  0.06235929  0.37620513    -0.24000
H150        H  0.34243948  0.12211894  0.38280145     0.15000
H151        H  0.31569247  0.09200979  0.27373134     0.15000
C152        C  0.37246051  0.15388710  0.28016213    -0.23900
H153        H  0.29510015  0.07220639  0.39917936     0.05300
H154        H  0.27155377  0.01890702  0.37478713     0.08500
H155        H  0.27194819  0.07973342  0.37421185     0.08500
H156        H  0.38878634  0.14340969  0.28356502     0.08500
H157        H  0.38277871  0.19740966  0.28001142     0.08500
H158        H  0.36292104  0.13947413  0.25734707     0.05200
C159        C  0.43765222  0.32318000  0.30030012    -0.20600
C160        C  0.44411623  0.31608241  0.33023510    -0.07100
C161        C  0.46314399  0.36121126  0.34748888     0.12600
C162        C  0.47544890  0.41160111  0.33412722    -0.20600
C163        C  0.46914271  0.41824996  0.30417445    -0.07100
C164        C  0.44970844  0.37361804  0.28719176     0.13700
C165        C  0.44088945  0.37911939  0.25568579    -0.24000
H166        H  0.42285842  0.28902517  0.28707449     0.15000
H167        H  0.98735528  0.44184114  0.34902681     0.15000
C168        C  0.46958175  0.35719260  0.38038096    -0.23900
H169        H  0.42442359  0.34034458  0.24623886     0.05300
H170        H  0.45950608  0.39650468  0.24005669     0.08500
H171        H  0.43199934  0.40492866  0.25635462     0.08500
H172        H  0.98115188  0.33222792  0.38130826     0.08500
H173        H  0.44943133  0.33585638  0.39387787     0.08500
H174        H  0.98240689  0.39146636  0.39148068     0.05200
C175        C  0.01208855  0.89221781  0.16520933    -0.20600
C176        C  0.02770864  0.91278275  0.13791461    -0.07100
C177        C  0.05422776  0.91665750  0.13450517     0.13700
C178        C  0.06459254  0.90040223  0.15857012    -0.20600
C179        C  0.04888615  0.87946361  0.18573621    -0.07100
C180        C  0.02219642  0.87495866  0.18904790     0.13700
C181        C  0.00486167  0.85392749  0.21808158    -0.24000
H182        H  0.99194097  0.88995096  0.16791636     0.15000
H183        H  0.08505880  0.90383981  0.15614736     0.15000
C184        C  0.07215994  0.93978650  0.10601405    -0.23900
H185        H  0.98507554  0.85498229  0.21719589     0.05300
H186        H  0.01760453  0.87820135  0.23769236     0.08500
H187        H  0.99855026  0.81230088  0.22188249     0.08500
H188        H  0.07699771  0.98058797  0.10227787     0.08500
H189        H  0.06057702  0.91513520  0.08604539     0.08500
H190        H  0.09269123  0.94150988  0.10760731     0.05200
C191        C  0.13378192  0.90987123  0.28486055    -0.20600
C192        C  0.12824221  0.91891355  0.25490543    -0.07100
C193        C  0.15096843  0.95960113  0.23727983     0.13700
C194        C  0.17849176  0.98816570  0.24967937    -0.20600
C195        C  0.18389251  0.97741399  0.27912194    -0.07100
C196        C  0.16126296  0.93822467  0.29703967     0.13700
C197        C  0.16624432  0.92530254  0.32874814    -0.24000
H198        H  0.11657190  0.87959409  0.29874327     0.15000
H199        H  0.19614632  0.01766304  0.23588515     0.15000
C200        C  0.14694985  0.97167783  0.20498250    -0.23900
H201        H  0.14621043  0.89350032  0.33964358     0.05300
H202        H  0.17505504  0.96082760  0.34328984     0.08500
H203        H  0.18152022  0.91182772  0.32785347     0.08500
H204        H  0.13205072  0.98600631  0.20469732     0.08500
H205        H  0.13845739  0.93570904  0.19079888     0.08500
H206        H  0.16733074  0.00297981  0.19439981     0.05200
C207        C  0.02902578  0.70080958  0.22906534    -0.20600
C208        C  0.04328526  0.73979622  0.25135713    -0.07100
C209        C  0.04415173  0.72404907  0.28165772     0.13700
C210        C  0.03169720  0.67024749  0.28847564    -0.20600
C211        C  0.01808039  0.63153372  0.26606716    -0.07100
C212        C  0.01659755  0.64691699  0.23598284     0.13700
C213        C  0.00170596  0.60668662  0.21122702    -0.24000
H214        H  0.02821627  0.71263246  0.20588329     0.15000
H215        H  0.03255145  0.65815750  0.31154830     0.15000
C216        C  0.05733618  0.76322303  0.30723125    -0.23900
H217        H  0.00148661  0.62546732  0.18940811     0.05300
H218        H  0.47885562  0.57921989  0.21655081     0.08500
H219        H  0.01284375  0.58535814  0.20693313     0.08500
H220        H  0.04808789  0.78844802  0.30809553     0.08500
H221        H  0.08072825  0.78799559  0.30386333     0.08500
H222        H  0.05339631  0.74325942  0.32976457     0.05200
C223        C  0.04609269  0.25025488  0.12698272    -0.20600
C224        C  0.02448097  0.19942588  0.13646541    -0.07100
C225        C  0.01481797  0.19118166  0.16720128     0.13700
C226        C  0.02762584  0.23363592  0.18771675    -0.20600
C227        C  0.05010631  0.28367338  0.17842488    -0.07100
C228        C  0.05904156  0.29238381  0.14758853     0.13700
C229        C  0.08187473  0.34626188  0.13626143    -0.24000
H230        H  0.05343791  0.25674965  0.10344467     0.15000
H231        H  0.02036797  0.22761337  0.21127829     0.15000
C232        C  0.99062429  0.13827860  0.17834314    -0.23900
H233        H  0.08590303  0.34639823  0.11137576     0.05300
H234        H  0.10206631  0.35906324  0.14818375     0.08500
H235        H  0.07530460  0.37504169  0.14065514     0.08500
H236        H  0.99682468  0.10848890  0.17728698     0.08500
H237        H  0.46959072  0.13801170  0.15771914     0.08500
H238        H  0.98467740  0.14001324  0.20239618     0.05200
C239        C  0.02803605  0.44633171  0.28415056    -0.20600
C240        C  0.01526941  0.46183823  0.26250613    -0.07100
C241        C  0.01624120  0.45055673  0.23130492     0.13700
C242        C  0.03009709  0.42431920  0.22271005    -0.20600
C243        C  0.04324093  0.40954601  0.24435128    -0.07100
C244        C  0.04179024  0.41997192  0.27557195     0.13700
C245        C  0.05406537  0.40248801  0.30009337    -0.24000
H246        H  0.02767158  0.45579878  0.30794207     0.15000
H247        H  0.03112985  0.41627163  0.19876620     0.15000
C248        C  0.50452874  0.46919183  0.20362190    -0.23900
H249        H  0.04880634  0.41005393  0.32329940     0.05300
H250        H  0.07757759  0.42451273  0.29792770     0.08500
H251        H  0.04528565  0.35944949  0.29819158     0.08500
H252        H  0.52088651  0.49859121  0.18753272     0.08500
H253        H  0.49205233  0.48547915  0.21292765     0.08500
H254        H  0.48957358  0.43302745  0.19075456     0.05200
C255        C  0.18165235  0.43465934  0.23895849    -0.20600
C256        C  0.18818734  0.46269127  0.26640837    -0.07100
C257        C  0.16618847  0.46251534  0.28301794     0.13700
C258        C  0.13835979  0.43483035  0.27177901    -0.20600
C259        C  0.13155637  0.40761918  0.24387019    -0.07100
C260        C  0.15364184  0.40660006  0.22759850     0.13700
C261        C  0.14849187  0.37829159  0.19772122    -0.24000
H262        H  0.19878480  0.43624801  0.22580177     0.15000
H263        H  0.12186075  0.43544373  0.28487349     0.15000
C264        C  0.17204063  0.49244888  0.31241511    -0.23900
H265        H  0.16829975  0.38253216  0.18818905     0.05300
H266        H  0.14060789  0.39520785  0.18084037     0.08500
H267        H  0.13283109  0.33543586  0.20097696     0.08500
H268        H  0.18795961  0.53501070  0.30855490     0.08500
H269        H  0.18018437  0.47632070  0.32937567     0.08500
H270        H  0.15249189  0.48893689  0.32219839     0.05200
C271        C  0.07584439  0.08964174  0.39844009    -0.20600
C272        C  0.07677309  0.12291029  0.42152809    -0.07100
C273        C  0.09662173  0.17784192  0.41934419     0.13700
C274        C  0.11693107  0.19746879  0.39566468    -0.20600
C275        C  0.11770308  0.16355193  0.37403433    -0.07100
C276        C  0.09605383  0.10918225  0.37463580     0.13700
C277        C  0.09369126  0.07151724  0.35018776    -0.24000
H278        H  0.06000044  0.04772084  0.39979133     0.15000
H279        H  0.13298059  0.23929926  0.39480332     0.15000
C280        C  0.09612555  0.21597855  0.44152591    -0.23900
H281        H  0.07377039  0.03219645  0.35274755     0.05300
H282        H  0.11165748  0.06509989  0.35145087     0.08500
H283        H  0.09348695  0.08748728  0.32735107     0.08500
H284        H  0.10129553  0.20926886  0.46480784     0.08500
H285        H  0.07467623  0.21076574  0.44171142     0.08500
H286        H  0.11194723  0.25764642  0.43515227     0.05200
C287        C  0.19933957  0.35045805  0.33836887    -0.20600
C288        C  0.19341840  0.31331158  0.31547856    -0.07100
C289        C  0.20108278  0.33054135  0.28491930     0.13700
C290        C  0.21381402  0.38447934  0.27795684    -0.20600
C291        C  0.21954371  0.42159673  0.30083767    -0.07100
C292        C  0.21308822  0.40454618  0.33161001     0.13700
C293        C  0.22124818  0.44297523  0.35754698    -0.24000
H294        H  0.19389461  0.33711393  0.36186422     0.15000
H295        H  0.21982162  0.39794173  0.25458930     0.15000
C296        C  0.19534018  0.29222848  0.25956043    -0.23900
H297        H  0.21306008  0.42232131  0.37983379     0.05300
H298        H  0.21262533  0.46863986  0.35411066     0.08500
H299        H  0.24477718  0.46806839  0.35907120     0.08500
H300        H  0.17225840  0.26156519  0.25901940     0.08500
H301        H  0.20773299  0.27312087  0.26316304     0.08500
H302        H  0.20161046  0.31227323  0.23693270     0.05200
C303        C  0.20345138  0.14970556  0.29353826    -0.20600
C304        C  0.19055153  0.14498737  0.32209862    -0.07100
C305        C  0.19025733  0.10988903  0.34430364     0.13700
C306        C  0.20218488  0.07988077  0.33696228    -0.20600
C307        C  0.21433427  0.08374719  0.30826019    -0.07100
C308        C  0.21552886  0.11973777  0.28639377     0.13700
C309        C  0.22985461  0.12829697  0.25568105    -0.24000
H310        H  0.20407632  0.17687570  0.27660830     0.15000
H311        H  0.20254357  0.05379229  0.35396197     0.15000
C312        C  0.17871909  0.10518931  0.37628188    -0.23900
H313        H  0.21408398  0.11870208  0.23739924     0.05300
H314        H  0.23923028  0.10368178  0.25232555     0.08500
H315        H  0.24728818  0.17032394  0.25325464     0.08500
H316        H  0.15529976  0.08682555  0.37593418     0.08500
H317        H  0.18895997  0.14479830  0.38690453     0.08500
H318        H  0.18296535  0.07983573  0.39106718     0.05200
C319        C  0.36909319  0.94392243  0.18086697    -0.20600
C320        C  0.36871174  0.90718172  0.20130215    -0.07100
C321        C  0.38936670  0.89292533  0.19767948     0.13700
C322        C  0.40927454  0.91508028  0.17348937    -0.20600
C323        C  0.40861326  0.94982721  0.15239682    -0.07100
C324        C  0.38861087  0.96518753  0.15647747     0.13700
C325        C  0.38802381  0.00470065  0.13548307    -0.24000
H326        H  0.35338568  0.95490086  0.18328433     0.15000
H327        H  0.42479030  0.90367084  0.17030800     0.15000
C328        C  0.39080624  0.85471137  0.21905521    -0.23900
H329        H  0.37198234  0.01420706  0.14299763     0.05300
H330        H  0.38241093  0.98861572  0.11209260     0.08500
H331        H  0.40923594  0.04195723  0.13510117     0.08500
H332        H  0.37160620  0.81460405  0.21654041     0.08500
H333        H  0.39243162  0.86811370  0.24298448     0.08500
H334        H  0.40961883  0.85160640  0.21408049     0.05200
C335        C  0.28518058  0.98412341  0.25821359    -0.20600
C336        C  0.27125785  0.97136741  0.28653737    -0.07100
C337        C  0.26982682  0.93060349  0.30431175     0.13700
C338        C  0.28377122  0.90532568  0.29395380    -0.20600
C339        C  0.29866289  0.91913308  0.26587264    -0.07100
C340        C  0.29897373  0.95891143  0.24758519     0.13700
C341        C  0.31273204  0.97422357  0.21636792    -0.24000
H342        H  0.28492432  0.01380485  0.24412489     0.15000
H343        H  0.28290489  0.87441358  0.30786575     0.15000
C344        C  0.25310795  0.91301186  0.33378662    -0.23900
H345        H  0.30864739  0.00264593  0.20466803     0.05300
H346        H  0.30407099  0.93870497  0.20175858     0.08500
H347        H  0.33616481  0.99383985  0.21844202     0.08500
H348        H  0.23054756  0.90007741  0.32958089     0.08500
H349        H  0.26239200  0.94609071  0.35007986     0.08500
H350        H  0.25348468  0.87956246  0.34444281     0.05200
C351        C  0.29070580  0.71857809  0.23629705    -0.20600
C352        C  0.29811935  0.75321252  0.26095017    -0.07100
C353        C  0.29298987  0.73308078  0.29104919     0.13700
C354        C  0.28081774  0.67863775  0.29570093    -0.20600
C355        C  0.27339732  0.64392381  0.27101053    -0.07100
C356        C  0.27779625  0.66405075  0.24084522     0.13700
C357        C  0.26892424  0.62866319  0.21327514    -0.24000
H358        H  0.29449681  0.73430066  0.21323820     0.15000
H359        H  0.27685068  0.66291493  0.31875001     0.15000
C360        C  0.30116720  0.76893348  0.31821774    -0.23900
H361        H  0.27676287  0.65189992  0.19171658     0.05300
H362        H  0.24537432  0.60414812  0.21208266     0.08500
H363        H  0.27739039  0.60229314  0.21424890     0.08500
H364        H  0.28878322  0.78852901  0.31849444     0.08500
H365        H  0.32428879  0.79936643  0.31707485     0.08500
H366        H  0.29680226  0.74678055  0.34003273     0.05200
C367        C  0.48062166  0.85489547  0.41567296    -0.20600
C368        C  0.46380919  0.85026494  0.44103936    -0.07100
C369        C  0.43599110  0.80545204  0.44405730     0.13700
C370        C  0.42538582  0.76673836  0.42125535    -0.20600
C371        C  0.44213913  0.77103365  0.39580442    -0.07100
C372        C  0.47032597  0.81550087  0.39319920     0.13700
C373        C  0.48930641  0.82283466  0.36630772    -0.24000
H374        H  0.00352984  0.88797489  0.41440512     0.15000
H375        H  0.40386065  0.73275006  0.42334720     0.15000
C376        C  0.41717952  0.79920867  0.47089796    -0.23900
H377        H  0.01164579  0.85925208  0.36822640     0.05300
H378        H  0.47866911  0.82206348  0.34476749     0.08500
H379        H  0.49405926  0.79102824  0.36609170     0.08500
H380        H  0.41432346  0.83336740  0.47189779     0.08500
H381        H  0.42706181  0.79710565  0.49236360     0.08500
H382        H  0.39577504  0.76261419  0.46929212     0.05200
C383        C  0.35630168  0.64396905  0.29766887    -0.20600
C384        C  0.36086184  0.65415585  0.32903912    -0.07100
C385        C  0.33720578  0.64002430  0.34840742     0.13700
C386        C  0.30964030  0.61427257  0.33599059    -0.20600
C387        C  0.30513418  0.60264106  0.30473888    -0.07100
C388        C  0.32886455  0.61838931  0.28532519     0.13700
C389        C  0.32540224  0.60701236  0.25171129    -0.24000
H390        H  0.37438282  0.65526430  0.28270879     0.15000
H391        H  0.29133177  0.60146615  0.35088923     0.15000
C392        C  0.34060238  0.64905185  0.38230983    -0.23900
H393        H  0.34595283  0.61834766  0.24038758     0.05300
H394        H  0.31754800  0.63040555  0.24093267     0.08500
H395        H  0.31022229  0.56425175  0.24781867     0.08500
H396        H  0.35391493  0.69198698  0.38698282     0.08500
H397        H  0.35081378  0.62874637  0.39211730     0.08500
H398        H  0.31974294  0.63352365  0.39407325     0.05200
C399        C  0.46078601  0.63015768  0.34680657    -0.20600
C400        C  0.44658566  0.64463512  0.32634943    -0.07100
C401        C  0.44568150  0.63190120  0.29507227     0.13700
C402        C  0.45750535  0.60258729  0.28549802    -0.20600
C403        C  0.47079721  0.58656060  0.30608580    -0.07100
C404        C  0.47298051  0.60138163  0.33704430     0.13700
C405        C  0.48861578  0.58789151  0.35967396    -0.24000
H406        H  0.46179211  0.64037861  0.37067957     0.15000
H407        H  0.45631567  0.59189345  0.26171016     0.15000
C408        C  0.43316751  0.65041278  0.27138143    -0.23900
H409        H  0.48903886  0.60401341  0.38262659     0.05300
H410        H  0.51097430  0.60477195  0.35188725     0.08500
H411        H  0.47805268  0.54445696  0.36204698     0.08500
H412        H  0.44314697  0.69385681  0.27292198     0.08500
H413        H  0.40980368  0.63033478  0.27473082     0.08500
H414        H  0.93287623  0.63184615  0.24884357     0.05200
C415        C  0.43130820  0.73178182  0.87098694     0.80000
N416        N  0.44685984  0.71185154  0.86003251    -0.78300
C417        C  0.43569878  0.67344022  0.83856843     0.82400
N418        N  0.40886492  0.65453143  0.82869087    -0.78300
C419        C  0.39291260  0.67346274  0.83953048     0.82500
N420        N  0.40428894  0.71221929  0.86085144    -0.80000
C421        C  0.34771311  0.88285266  0.72127102     0.80000
N422        N  0.33588266  0.83144841  0.72951553    -0.78300
C423        C  0.31304479  0.80730329  0.74879118     0.82400
N424        N  0.30128922  0.83472545  0.75929216    -0.78300
C425        C  0.31241160  0.88594602  0.75057862     0.82500
N426        N  0.33565457  0.90957241  0.73181843    -0.80000
C427        C  0.14075968  0.18081465  0.85016880     0.80000
N428        N  0.15479494  0.23227088  0.84121620    -0.78300
C429        C  0.17802394  0.25233410  0.82249622     0.82400
N430        N  0.18791804  0.22099449  0.81362470    -0.78300
C431        C  0.17450945  0.16971365  0.82319691     0.82500
N432        N  0.15092605  0.15023487  0.84121227    -0.80000
C433        C  0.26357754  0.58432274  0.77634142     0.02000
C434        C  0.27783997  0.56432039  0.79290778     0.02000
C435        C  0.26370348  0.51002699  0.79955797    -0.18500
C436        C  0.23542826  0.47493009  0.79073980     0.02000
C437        C  0.22130528  0.49471326  0.77381678     0.02000
C438        C  0.23537481  0.54903905  0.76725171    -0.18500
H439        H  0.22401261  0.56407960  0.75521661     0.04000
H440        H  0.27504636  0.49489692  0.81153405     0.04000
C441        C  0.06833260  0.33347038  0.69474310     0.80000
N442        N  0.05334164  0.35357685  0.70690375    -0.78300
C443        C  0.06524613  0.39200947  0.72828573     0.82400
N444        N  0.09223497  0.41003169  0.73733862    -0.78300
C445        C  0.10748380  0.39021137  0.72558068     0.82500
N446        N  0.09540839  0.35172084  0.70415451    -0.80000
C447        C  0.06109206  0.85972950  0.70531583     0.80000
N448        N  0.04717466  0.80874769  0.71535125    -0.78300
C449        C  0.05887438  0.79325001  0.73690390     0.82400
N450        N  0.08498127  0.82874462  0.74777505    -0.78300
C451        C  0.09943627  0.87963077  0.73806707     0.82500
N452        N  0.08727020  0.89483874  0.71695369    -0.80000
C453        C  0.42883148  0.19097738  0.86888117     0.80000
N454        N  0.44372543  0.24131144  0.85785793    -0.78300
C455        C  0.43195152  0.25811951  0.83717239     0.82400
N456        N  0.40501518  0.22358501  0.82747692    -0.78300
C457        C  0.38987969  0.17336578  0.83834697     0.82500
N458        N  0.40170170  0.15749605  0.85942337    -0.80000
C459        C  0.48563200  0.55675166  0.79423251     0.02000
C460        C  0.00746897  0.57553643  0.77502651     0.02000
C461        C  0.01858143  0.54595182  0.76385585    -0.18500
C462        C  0.00729861  0.49366126  0.77339067     0.02000
C463        C  0.48401555  0.47325242  0.79239024     0.02000
C464        C  0.47370053  0.50411924  0.80378393    -0.18500
H465        H  0.45601718  0.48668473  0.81988766     0.04000
H466        H  0.03636148  0.56390423  0.74784301     0.04000
C467        C  0.27135063  0.04821523  0.80409688     0.02000
C468        C  0.25795190  0.99794879  0.79010904     0.02000
C469        C  0.22976557  0.97465721  0.78011145    -0.18500
C470        C  0.21473746  0.00038533  0.78327326     0.02000
C471        C  0.22828902  0.05107734  0.79630338     0.02000
C472        C  0.25633691  0.07425210  0.80673038    -0.18500
H473        H  0.26672024  0.11337399  0.81656646     0.04000
H474        H  0.21954151  0.93634899  0.76922794     0.04000
Zr475      Zr  0.00131436  0.03339341  0.59748212     2.17500
O476        O  0.02876951  0.05743245  0.64445316    -0.51600
O477        O  0.45989978  0.99229177  0.62932994    -0.74800
O478        O  0.01224961  0.11684506  0.61965175    -0.81600
O479        O  0.01031376  0.91527776  0.58647352    -0.83300
O480        O  0.01113682  0.16941428  0.58288078    -0.78900
O481        O  0.01697230  0.97897681  0.61999466    -0.90600
O482        O  0.42130248  0.96598287  0.59962944    -0.76500
O483        O  0.46939927  0.05073551  0.57167406    -0.86000
O484        O  0.46907196  0.95335764  0.57321069    -0.85700
O485        O  0.03039479  0.10397826  0.56214432    -0.72500
O486        O  0.02835897  0.01329517  0.56299966    -0.84600
Zr487      Zr  0.48899238  0.01929609  0.97741487     2.26400
Zr488      Zr  0.49735097  0.12011737  0.53547080     2.06300
Zr489      Zr  0.49604470  0.93569178  0.53734629     2.10000
Zr490      Zr  0.43666372  0.96953179  0.54752178     1.78800
O491        O  0.02933201  0.90872277  0.52654380    -0.93400
O492        O  0.40106748  0.99422347  0.54672011    -0.41200
O493        O  0.46290671  0.95075449  0.51168744    -0.77900
O494        O  0.46276287  0.03923316  0.51119035    -0.96600
O495        O  0.02396754  0.10017173  0.50119709    -0.89900
O496        O  0.02230697  0.00199295  0.50232255    -0.92700
C497        C  0.43321518  0.97322648  0.62555302     1.01100
C498        C  0.01801014  0.93852720  0.61241399     1.14000
C499        C  0.01535873  0.16037364  0.61032419     1.04800
O500        O  0.46330224  0.14655829  0.54587310    -0.94900
O501        O  0.48205987  0.14033024  0.98799525    -0.90600
O502        O  0.47863818  0.08078738  0.95350016    -0.83700
C503        C  0.47687629  0.12057218  0.96106585     1.11400
O504        O  0.09127923  0.09858275  0.56507937    -0.96800
Zr505      Zr  0.05581320  0.08221444  0.52670434     1.88900
O506        O  0.03397049  0.06610723  0.94669112    -0.73500
O507        O  0.03500581  0.20738474  0.52131881    -0.52700
O508        O  0.08983578  0.17652429  0.53260075    -0.97400
O509        O  0.08638936  0.04998559  0.51058199    -0.54600
O510        O  0.07288965  0.10841208  0.97682508    -0.74000
C511        C  0.06080744  0.09713639  0.95073535     0.98400
O512        O  0.45927649  0.98287288  0.93234564    -0.62800
O513        O  0.46041172  0.84443023  0.55075348    -0.57600
O514        O  0.47774401  0.93621696  0.95473693    -0.94300
O515        O  0.47641969  0.88175955  0.99204836    -0.92700
O516        O  0.40987972  0.87495567  0.55804648    -0.93100
O517        O  0.39860276  0.92416614  0.51061355    -0.91900
C518        C  0.47324192  0.89169264  0.96433471     1.17200
H519        H  0.45958398  0.92519805  0.58814488     0.33100
H520        H  0.44877414  0.04322761  0.50055303     0.44000
H521        H  0.03379500  0.99244142  0.98967751     0.37500
H522        H  0.04448427  0.13520439  0.57277970     0.34000
H523        H  0.38432286  0.96526169  0.55771376     0.25800
H524        H  0.02697250  0.22973643  0.52517437     0.31700
H525        H  0.10639415  0.18408591  0.51969351     0.37600
H526        H  0.41299050  0.85903659  0.53977611     0.32100
H527        H  0.46890453  0.82392437  0.54407135     0.31000
H528        H  0.01786031  0.87017135  0.52299664     0.32600
H529        H  0.08226948  0.04077059  0.48876891     0.31600
H530        H  0.40838461  0.92433034  0.49153615     0.35600
H531        H  0.44231481  0.98526086  0.93630272     0.28300
H532        H  0.01734435  0.06219142  0.66017818     0.32600
H533        H  0.11000387  0.11800504  0.55445702     0.35400
H534        H  0.46037736  0.84277215  0.57331417     0.28000
H535        H  0.46981369  0.00829512  0.91553665     0.40900
H536        H  0.44445347  0.11344839  0.54450437     0.31000
H537        H  0.40849192  0.02469613  0.56064621     0.38600
H538        H  0.07536263  0.00953415  0.03254705     0.30400
H539        H  0.04983012  0.21812534  0.53701659     0.30500
H540        H  0.04588339  0.09300589  0.64090858     0.30800
C541        C  0.45826336  0.20806136  0.91513692    -0.20600
C542        C  0.44179702  0.17336095  0.89174569    -0.07100
C543        C  0.43823810  0.12285816  0.89054712     0.13700
C544        C  0.45058246  0.10806357  0.91305657    -0.20600
C545        C  0.46626118  0.14178573  0.93724217    -0.07100
C546        C  0.47035875  0.19295490  0.93803664     0.13700
C547        C  0.99038109  0.23244008  0.96346815    -0.24000
H548        H  0.46115462  0.24693730  0.91589168     0.15000
H549        H  0.44726781  0.06891888  0.91197471     0.15000
C550        C  0.42203109  0.08447356  0.86527037    -0.23900
H551        H  0.99296392  0.27138549  0.95878610     0.05300
H552        H  0.01194728  0.23821919  0.96366425     0.08500
H553        H  0.98016995  0.21914886  0.98632139     0.08500
H554        H  0.43094850  0.10355474  0.84276505     0.08500
H555        H  0.39912343  0.07106509  0.86674831     0.08500
H556        H  0.42340261  0.04867357  0.86671187     0.05200
C557        C  0.33867747  0.11862960  0.85203028    -0.20600
C558        C  0.35989771  0.13789947  0.82928001    -0.07100
C559        C  0.35198093  0.12547782  0.79844252     0.13700
C560        C  0.32296784  0.09459296  0.79109508    -0.20600
C561        C  0.30164704  0.07661620  0.81371994    -0.07100
C562        C  0.30961849  0.08930898  0.84462211     0.13700
C563        C  0.28773359  0.07342367  0.86982647    -0.24000
H564        H  0.34489844  0.12871503  0.87562038     0.15000
H565        H  0.31683632  0.08586517  0.76741555     0.15000
C566        C  0.37403356  0.14421027  0.77326913    -0.23900
H567        H  0.29782675  0.08486582  0.89260769     0.05300
H568        H  0.27257330  0.03013497  0.86999190     0.08500
H569        H  0.27570819  0.09329204  0.86661687     0.08500
H570        H  0.38870647  0.13013011  0.77771521     0.08500
H571        H  0.38640516  0.18797154  0.77197554     0.08500
H572        H  0.36411504  0.12903641  0.75068180     0.05200
C573        C  0.43729708  0.32421777  0.79879236    -0.20600
C574        C  0.44735462  0.31381550  0.82567903    -0.07100
C575        C  0.47022353  0.35703711  0.84133203     0.12600
C576        C  0.48139949  0.40864980  0.83016191    -0.20600
C577        C  0.47102061  0.41825197  0.80350677    -0.07100
C578        C  0.44867000  0.37569266  0.78771834     0.13700
C579        C  0.43631982  0.38460999  0.75954078    -0.24000
H580        H  0.42011099  0.29187135  0.78634710     0.15000
H581        H  0.00002546  0.43908467  0.84402353     0.15000
C582        C  0.48289497  0.35006712  0.86993997    -0.23900
H583        H  0.41852678  0.34701422  0.75026642     0.05300
H584        H  0.45296229  0.40357157  0.74159683     0.08500
H585        H  0.42806512  0.41052912  0.76497973     0.08500
H586        H  0.99273389  0.32293984  0.86777588     0.08500
H587        H  0.46620971  0.33056121  0.88796364     0.08500
H588        H  0.00086017  0.38577626  0.88146203     0.05200
C589        C  0.01218359  0.86551495  0.64518240    -0.20600
C590        C  0.02920066  0.91802718  0.63535188    -0.07100
C591        C  0.05628247  0.95078627  0.64827079     0.13700
C592        C  0.06558260  0.93031387  0.67089561    -0.20600
C593        C  0.04875484  0.87763466  0.68125719    -0.07100
C594        C  0.02134554  0.84476730  0.66809374     0.13700
C595        C  0.00119312  0.78819349  0.67784605    -0.24000
H596        H  0.99131566  0.84087629  0.63520444     0.15000
H597        H  0.08642771  0.95623945  0.68040810     0.15000
C598        C  0.07599470  0.00704164  0.63760758    -0.23900
H599        H  0.98067207  0.76979798  0.66549613     0.05300
H600        H  0.99616842  0.78631175  0.70257052     0.08500
H601        H  0.01079772  0.76435548  0.67283306     0.08500
H602        H  0.06660437  0.03102384  0.64291817     0.08500
H603        H  0.07975400  0.00791912  0.61262657     0.08500
H604        H  0.09699896  0.02595728  0.64899572     0.05200
C605        C  0.13496683  0.90457819  0.77896552    -0.20600
C606        C  0.12856215  0.91642148  0.75016539    -0.07100
C607        C  0.15074871  0.95909513  0.73307660     0.13700
C608        C  0.17855707  0.98687488  0.74482244    -0.20600
C609        C  0.18479766  0.97298026  0.77294340    -0.07100
C610        C  0.16275519  0.93138764  0.79021423     0.13700
C611        C  0.16860004  0.91434665  0.82024936    -0.24000
H612        H  0.11822705  0.87308842  0.79260463     0.15000
H613        H  0.19574124  0.01853603  0.73156043     0.15000
C614        C  0.14581612  0.97467803  0.70212810    -0.23900
H615        H  0.14881280  0.88156444  0.83099495     0.05300
H616        H  0.17824102  0.94796751  0.83630598     0.08500
H617        H  0.18345654  0.90034817  0.81667100     0.08500
H618        H  0.13099847  0.98898683  0.70438036     0.08500
H619        H  0.13690406  0.94045834  0.68645928     0.08500
H620        H  0.16588032  0.00714465  0.69165040     0.05200
C621        C  0.02985537  0.69713642  0.72593387    -0.20600
C622        C  0.04432495  0.73758483  0.74735151    -0.07100
C623        C  0.04564626  0.72406162  0.77806537     0.13700
C624        C  0.03386472  0.67103305  0.78609201    -0.20600
C625        C  0.02026449  0.63090823  0.76454368    -0.07100
C626        C  0.01778417  0.64385672  0.73417069     0.13700
C627        C  0.00196839  0.60163334  0.71062416    -0.24000
H628        H  0.02854944  0.70729336  0.70250422     0.15000
H629        H  0.03526044  0.66063906  0.80944123     0.15000
C630        C  0.05883608  0.76480837  0.80283883    -0.23900
H631        H  0.00094619  0.61864665  0.68846274     0.05300
H632        H  0.47993851  0.57831170  0.71570976     0.08500
H633        H  0.01285305  0.57980307  0.70652417     0.08500
H634        H  0.05019726  0.79103017  0.80227361     0.08500
H635        H  0.08225909  0.78811261  0.79981290     0.08500
H636        H  0.05430200  0.74631876  0.82587767     0.05200
C637        C  0.05097125  0.25288521  0.62244987    -0.20600
C638        C  0.02706371  0.20467045  0.63194451    -0.07100
C639        C  0.01626496  0.19941340  0.66196213     0.13700
C640        C  0.02998707  0.24256505  0.68183638    -0.20600
C641        C  0.05453437  0.29008037  0.67260790    -0.07100
C642        C  0.06494587  0.29556929  0.64245977     0.13700
C643        C  0.09039765  0.34657745  0.63110938    -0.24000
H644        H  0.05923053  0.25669226  0.59942622     0.15000
H645        H  0.02184783  0.23895973  0.70489305     0.15000
C646        C  0.99003640  0.14903796  0.67288625    -0.23900
H647        H  0.09492121  0.34454423  0.60657188     0.05300
H648        H  0.10948811  0.35535060  0.64407536     0.08500
H649        H  0.08649505  0.37924693  0.63399943     0.08500
H650        H  0.99404137  0.11629667  0.67307890     0.08500
H651        H  0.47264083  0.13763564  0.65694649     0.08500
H652        H  0.98378040  0.15291934  0.69642992     0.05200
C653        C  0.03679237  0.45502407  0.78160018    -0.20600
C654        C  0.02041289  0.46467437  0.76156596    -0.07100
C655        C  0.01822440  0.44918190  0.73072248     0.13700
C656        C  0.03241049  0.42417220  0.72086964    -0.20600
C657        C  0.04937043  0.41550767  0.74075815    -0.07100
C658        C  0.05129843  0.43069524  0.77171047     0.13700
C659        C  0.06820731  0.42099343  0.79470174    -0.24000
H660        H  0.03883577  0.46792947  0.80504394     0.15000
H661        H  0.03084480  0.41272821  0.69715199     0.15000
C662        C  0.50129176  0.45732482  0.70498971    -0.23900
H663        H  0.06502620  0.43095538  0.81821642     0.05300
H664        H  0.09127237  0.44620030  0.78929154     0.08500
H665        H  0.06146323  0.37869849  0.79462656     0.08500
H666        H  0.51597532  0.48218972  0.68626616     0.08500
H667        H  0.49039458  0.47703421  0.71379321     0.08500
H668        H  0.48483773  0.41861172  0.69546715     0.05200
C669        C  0.18741205  0.44574094  0.73198915    -0.20600
C670        C  0.19168894  0.46039666  0.76281325    -0.07100
C671        C  0.16800620  0.44775415  0.78152002     0.13700
C672        C  0.14080759  0.42262353  0.76877708    -0.20600
C673        C  0.13643648  0.40975490  0.73768115    -0.07100
C674        C  0.16002414  0.42000498  0.71920470     0.13700
C675        C  0.15684819  0.40632400  0.68587275    -0.24000
H676        H  0.20575598  0.45587034  0.71770310     0.15000
H677        H  0.12275958  0.41347517  0.78325873     0.15000
C678        C  0.17127781  0.46154761  0.81481826    -0.23900
H679        H  0.17768330  0.41901755  0.67478840     0.05300
H680        H  0.14745143  0.42635650  0.67390654     0.08500
H681        H  0.14301691  0.36290191  0.68321889     0.08500
H682        H  0.18722912  0.50421053  0.81790154     0.08500
H683        H  0.17802298  0.43746684  0.82691889     0.08500
H684        H  0.15087754  0.45278639  0.82541534     0.05200
C685        C  0.07592512  0.08744705  0.89909561    -0.20600
C686        C  0.07911261  0.12064909  0.92334634    -0.07100
C687        C  0.09962263  0.17528455  0.92092538     0.13700
C688        C  0.11842896  0.19432710  0.89579686    -0.20600
C689        C  0.11713565  0.16014170  0.87293811    -0.07100
C690        C  0.09448385  0.10650076  0.87375059     0.13700
C691        C  0.08895534  0.06944689  0.84766077    -0.24000
H692        H  0.05930129  0.04597629  0.90040430     0.15000
H693        H  0.13499674  0.23583296  0.89473608     0.15000
C694        C  0.10149068  0.21374651  0.94446885    -0.23900
H695        H  0.06867311  0.03093032  0.85099863     0.05300
H696        H  0.10611989  0.06100728  0.84554438     0.08500
H697        H  0.08737520  0.08717428  0.82604885     0.08500
H698        H  0.10829898  0.20621570  0.96657651     0.08500
H699        H  0.08039347  0.20958067  0.94730669     0.08500
H700        H  0.11720086  0.25527564  0.93771319     0.05200
C701        C  0.20182933  0.34668082  0.83693372    -0.20600
C702        C  0.19337060  0.30898175  0.81375971    -0.07100
C703        C  0.19886956  0.32595403  0.78299036     0.13700
C704        C  0.21259235  0.38018684  0.77614550    -0.20600
C705        C  0.22127600  0.41800324  0.79931688    -0.07100
C706        C  0.21626123  0.40100409  0.83020358     0.13700
C707        C  0.22596290  0.43969461  0.85624685    -0.24000
H708        H  0.19760463  0.33350591  0.86052684     0.15000
H709        H  0.21675493  0.39324956  0.75255156     0.15000
C710        C  0.18944826  0.28687751  0.75732342    -0.23900
H711        H  0.21782019  0.41921565  0.87857890     0.05300
H712        H  0.21842684  0.46729091  0.85341155     0.08500
H713        H  0.24954319  0.46290971  0.85728460     0.08500
H714        H  0.16610681  0.25827997  0.75906064     0.08500
H715        H  0.20075054  0.26528798  0.75848177     0.08500
H716        H  0.19414494  0.30666547  0.73466367     0.05200
C717        C  0.20153499  0.14523368  0.78799340    -0.20600
C718        C  0.18653105  0.13631815  0.81570692    -0.07100
C719        C  0.18463903  0.09750314  0.83625118     0.13700
C720        C  0.19789580  0.06973516  0.82862285    -0.20600
C721        C  0.21306344  0.07926861  0.80125663    -0.07100
C722        C  0.21481667  0.11728842  0.78052718     0.13700
C723        C  0.23080047  0.12981872  0.75060212    -0.24000
H724        H  0.20313333  0.17456726  0.77205849     0.15000
H725        H  0.19706079  0.04110578  0.84455660     0.15000
C726        C  0.17005284  0.08639238  0.86702520    -0.23900
H727        H  0.21595589  0.12191903  0.73155920     0.05300
H728        H  0.24062799  0.10605362  0.74682119     0.08500
H729        H  0.24803481  0.17218065  0.74997232     0.08500
H730        H  0.14684326  0.06833444  0.86418469     0.08500
H731        H  0.17907942  0.12348147  0.88024574     0.08500
H732        H  0.17287307  0.05811421  0.88072400     0.05200
C733        C  0.37643117  0.95300009  0.68252267    -0.20600
C734        C  0.37216356  0.90883190  0.69913325    -0.07100
C735        C  0.39097090  0.89062515  0.69357413     0.13700
C736        C  0.41190387  0.91477490  0.67050426    -0.20600
C737        C  0.41442549  0.95602918  0.65266606    -0.07100
C738        C  0.39712818  0.97653602  0.65931717     0.13700
C739        C  0.40059691  0.02349380  0.64213733    -0.24000
H740        H  0.36294047  0.96845287  0.68689698     0.15000
H741        H  0.42559655  0.89978694  0.66539582     0.15000
C742        C  0.38952280  0.84613864  0.71161397    -0.23900
H743        H  0.38613376  0.03580843  0.65116856     0.05300
H744        H  0.39565179  0.01375437  0.61769341     0.08500
H745        H  0.42284274  0.05742571  0.64424358     0.08500
H746        H  0.36950433  0.80836056  0.70659277     0.08500
H747        H  0.39077922  0.85473747  0.73638664     0.08500
H748        H  0.40742080  0.84073907  0.70570614     0.05200
C749        C  0.28256113  0.97592187  0.75136336    -0.20600
C750        C  0.27350659  0.97141714  0.78172226    -0.07100
C751        C  0.27648150  0.93751595  0.80178027     0.13700
C752        C  0.28931665  0.91022387  0.79111338    -0.20600
C753        C  0.29898441  0.91562662  0.76075231    -0.07100
C754        C  0.29507609  0.94847846  0.74053188     0.13700
C755        C  0.30270679  0.95319950  0.70711665    -0.24000
H756        H  0.27933818  0.00065136  0.73585220     0.15000
H757        H  0.29186786  0.88461587  0.80656913     0.15000
C758        C  0.26563972  0.92924180  0.83413422    -0.23900
H759        H  0.29517093  0.97567213  0.69431023     0.05300
H760        H  0.29275559  0.91335856  0.69683506     0.08500
H761        H  0.32612698  0.97480269  0.70429099     0.08500
H762        H  0.24251933  0.91458125  0.83441123     0.08500
H763        H  0.27742221  0.96706082  0.84651579     0.08500
H764        H  0.26874127  0.90003270  0.84640011     0.05200
C765        C  0.29467844  0.71498330  0.73273377    -0.20600
C766        C  0.30034712  0.75057380  0.75655542    -0.07100
C767        C  0.29456154  0.73150909  0.78694829     0.13700
C768        C  0.28309482  0.67741246  0.79270269    -0.20600
C769        C  0.27708696  0.64165184  0.76886795    -0.07100
C770        C  0.28254036  0.66070752  0.73837730     0.13700
C771        C  0.27531366  0.62419747  0.71157752    -0.24000
H772        H  0.29911588  0.72963007  0.70942405     0.15000
H773        H  0.27821529  0.66272381  0.81595408     0.15000
C774        C  0.30119352  0.76824776  0.81342169    -0.23900
H775        H  0.28236798  0.64630303  0.68960634     0.05300
H776        H  0.25195462  0.59637844  0.71036163     0.08500
H777        H  0.28577736  0.60136594  0.71364485     0.08500
H778        H  0.28795023  0.78607411  0.81232631     0.08500
H779        H  0.32410000  0.79999149  0.81272961     0.08500
H780        H  0.29670817  0.74722438  0.83565599     0.05200
C781        C  0.47848470  0.85949907  0.91405549    -0.20600
C782        C  0.46325680  0.84895945  0.94164370    -0.07100
C783        C  0.43772421  0.79947385  0.94600241     0.13700
C784        C  0.42777730  0.76225495  0.92239514    -0.20600
C785        C  0.44308853  0.77265741  0.89491073    -0.07100
C786        C  0.46892828  0.82169893  0.89076917     0.13700
C787        C  0.48593287  0.83510118  0.86147875    -0.24000
H788        H  0.00453991  0.88910700  0.91583241     0.15000
H789        H  0.40798359  0.72458568  0.92544703     0.15000
C790        C  0.42038718  0.78638220  0.97503962    -0.23900
H791        H  0.01349985  0.86158438  0.86967707     0.05300
H792        H  0.47252422  0.83232956  0.84197777     0.08500
H793        H  0.49338025  0.80743099  0.85796810     0.08500
H794        H  0.41430454  0.81597296  0.97896613     0.08500
H795        H  0.43297422  0.78633068  0.99461396     0.08500
H796        H  0.40054052  0.74674275  0.97408713     0.05200
C797        C  0.35791250  0.62862216  0.79820915    -0.20600
C798        C  0.36352165  0.65102044  0.82750092    -0.07100
C799        C  0.34060933  0.64712684  0.84475801     0.13700
C800        C  0.31305103  0.62073928  0.83228092    -0.20600
C801        C  0.30774419  0.59810250  0.80316751    -0.07100
C802        C  0.33041631  0.60150393  0.78616331     0.13700
C803        C  0.32556491  0.57491823  0.75570766    -0.24000
H804        H  0.37507982  0.63107529  0.78474352     0.15000
H805        H  0.29529056  0.61596920  0.84576603     0.15000
C806        C  0.34447907  0.66789045  0.87680438    -0.23900
H807        H  0.34553085  0.58023191  0.74588660     0.05300
H808        H  0.31743612  0.59215134  0.73947907     0.08500
H809        H  0.30993310  0.53188067  0.75816157     0.08500
H810        H  0.35894184  0.71147608  0.87665049     0.08500
H811        H  0.35344189  0.64966576  0.89131947     0.08500
H812        H  0.32395016  0.65860153  0.88731464     0.05200
C813        C  0.46272045  0.62950618  0.84791965    -0.20600
C814        C  0.45149394  0.64937341  0.82704054    -0.07100
C815        C  0.45320750  0.64159668  0.79550516     0.13700
C816        C  0.46371010  0.61025259  0.78581152    -0.20600
C817        C  0.47402560  0.58852071  0.80658019    -0.07100
C818        C  0.47426012  0.59958931  0.83808290     0.13700
C819        C  0.48714784  0.58116196  0.86135301    -0.24000
H820        H  0.46173598  0.63618875  0.87208295     0.15000
H821        H  0.46385162  0.60260106  0.76170531     0.15000
C822        C  0.44480941  0.66753947  0.77184366    -0.23900
H823        H  0.48700483  0.59620974  0.88448493     0.05300
H824        H  0.50961110  0.59570512  0.85495144     0.08500
H825        H  0.47491772  0.53748826  0.86286222     0.08500
H826        H  0.45637968  0.71077073  0.77583704     0.08500
H827        H  0.42156636  0.65091132  0.77284494     0.08500
H828        H  0.94232204  0.64296569  0.75010633     0.05200
C829        C  0.92938562  0.73145966  0.37092512     0.80000
N830        N  0.94346185  0.70860155  0.35988965    -0.78300
C831        C  0.93126556  0.67024772  0.33840557     0.82400
N832        N  0.90479740  0.65429546  0.32857583    -0.78300
C833        C  0.89029285  0.67598680  0.33948142     0.82500
N834        N  0.90260752  0.71457037  0.36083737    -0.80000
C835        C  0.84816142  0.88283562  0.22488971     0.80000
N836        N  0.83567007  0.83137150  0.23321525    -0.78300
C837        C  0.81306881  0.80862840  0.25280716     0.82400
N838        N  0.80215405  0.83725400  0.26335851    -0.78300
C839        C  0.81394347  0.88856291  0.25470999     0.82500
N840        N  0.83703467  0.91101486  0.23569779    -0.80000
C841        C  0.64261737  0.18366244  0.35063987     0.80000
N842        N  0.65636232  0.23489800  0.34139626    -0.78300
C843        C  0.68002093  0.25537448  0.32336439     0.82400
N844        N  0.69060817  0.22481113  0.31543865    -0.78300
C845        C  0.67742558  0.17383100  0.32537506     0.82500
N846        N  0.65344126  0.15378124  0.34270453    -0.80000
C847        C  0.76048214  0.58524019  0.27727690     0.02000
C848        C  0.77587163  0.56669888  0.29286517     0.02000
C849        C  0.76276491  0.51249659  0.29904129    -0.18500
C850        C  0.73442272  0.47634303  0.29080100     0.02000
C851        C  0.71922152  0.49481765  0.27472567     0.02000
C852        C  0.73233985  0.54901737  0.26852751    -0.18500
H853        H  0.72025423  0.56320365  0.25718249     0.04000
H854        H  0.77483786  0.49834708  0.31045225     0.04000
C855        C  0.56607343  0.33273098  0.19600561     0.80000
N856        N  0.55140420  0.35416533  0.20727525    -0.78300
C857        C  0.56347730  0.39348164  0.22817621     0.82400
N858        N  0.59032422  0.41112829  0.23768895    -0.78300
C859        C  0.60529846  0.39016700  0.22670109     0.82500
N860        N  0.59304832  0.35082221  0.20575666    -0.80000
C861        C  0.56286746  0.86355619  0.20369011     0.80000
N862        N  0.54921583  0.81268183  0.21378005    -0.78300
C863        C  0.56071977  0.79754130  0.23571642     0.82400
N864        N  0.58651700  0.83358841  0.24705754    -0.78300
C865        C  0.60076957  0.88453525  0.23731100     0.82500
N866        N  0.58876588  0.89930162  0.21567685    -0.80000
C867        C  0.92719444  0.19246508  0.37526096     0.80000
N868        N  0.94118174  0.24224905  0.36350603    -0.78300
C869        C  0.92825225  0.25690752  0.34301140     0.82400
N870        N  0.90149555  0.22067929  0.33374793    -0.78300
C871        C  0.88750808  0.17066872  0.34500581     0.82500
N872        N  0.90022695  0.15683108  0.36618727    -0.80000
C873        C  0.98110807  0.55262375  0.29656856     0.02000
C874        C  0.50566171  0.57816346  0.27259233     0.02000
C875        C  0.51635796  0.54785463  0.26145948    -0.18500
C876        C  0.50450231  0.49516628  0.27068371     0.02000
C877        C  0.97907988  0.46910469  0.29431529     0.02000
C878        C  0.96869786  0.49979216  0.30554704    -0.18500
H879        H  0.95075485  0.48232578  0.32135582     0.04000
H880        H  0.53445054  0.56574160  0.24584901     0.04000
C881        C  0.77053647  0.04522364  0.30738755     0.02000
C882        C  0.75675756  0.99625210  0.29202413     0.02000
C883        C  0.72902575  0.97538599  0.28116669    -0.18500
C884        C  0.71488837  0.00265455  0.28487593     0.02000
C885        C  0.72900492  0.05226336  0.29919582     0.02000
C886        C  0.75652465  0.07285197  0.31043143    -0.18500
H887        H  0.76729459  0.11120321  0.32127823     0.04000
H888        H  0.71846756  0.93785489  0.26940575     0.04000
Zr889      Zr  0.49788321  0.03114949  0.09818626     2.17500
O890        O  0.52120258  0.04722934  0.14748928    -0.51600
O891        O  0.95900054  0.99042795  0.13181166    -0.74800
O892        O  0.51056757  0.11583618  0.12026926    -0.81600
O893        O  0.50956677  0.91595502  0.08602034    -0.83300
O894        O  0.50854921  0.16793407  0.08371755    -0.78900
O895        O  0.51512690  0.97823685  0.12001032    -0.90600
O896        O  0.92042229  0.95842264  0.10120518    -0.76500
O897        O  0.96912958  0.04768287  0.07419183    -0.86000
O898        O  0.96850354  0.95015876  0.07485295    -0.85700
O899        O  0.52755891  0.10236529  0.06320562    -0.72500
O900        O  0.52568369  0.01247563  0.06412952    -0.84600
Zr901      Zr  0.98999633  0.01976813  0.47738784     2.26400
Zr902      Zr  0.99748665  0.11761303  0.03841694     2.06300
Zr903      Zr  0.99605769  0.93252929  0.03994068     2.10000
Zr904      Zr  0.93661663  0.96767155  0.04894553     1.78800
O905        O  0.52785999  0.91018198  0.02640696    -0.93400
O906        O  0.90641502  0.00459728  0.04834326    -0.41200
O907        O  0.96324076  0.94803858  0.01391709    -0.77900
O908        O  0.96350240  0.03738052  0.01313357    -0.96600
O909        O  0.52227269  0.09946098  0.00191156    -0.89900
O910        O  0.52101497  0.00180673  0.00304223    -0.92700
C911        C  0.93213532  0.96810018  0.12740543     1.01100
C912        C  0.51698618  0.93875962  0.11202998     1.14000
C913        C  0.51329754  0.15920084  0.11108934     1.04800
O914        O  0.96233495  0.14183470  0.04782118    -0.94900
O915        O  0.98261383  0.13954371  0.48886639    -0.90600
O916        O  0.98009343  0.08204875  0.45314569    -0.83700
C917        C  0.97788149  0.12091921  0.46171270     1.11400
O918        O  0.58919469  0.11087195  0.06842320    -0.96800
Zr919      Zr  0.55378230  0.08176610  0.02822179     1.88900
O920        O  0.53260886  0.06686081  0.44339419    -0.73500
O921        O  0.53411568  0.20618217  0.02249386    -0.52700
O922        O  0.58723025  0.17698369  0.02769956    -0.97400
O923        O  0.58339784  0.04438228  0.02051084    -0.54600
O924        O  0.57125112  0.11286639  0.47358404    -0.74000
C925        C  0.55928416  0.09975545  0.44750864     0.98400
O926        O  0.95713720  0.98124043  0.43486891    -0.62800
O927        O  0.95921285  0.84317544  0.05550112    -0.57600
O928        O  0.98061275  0.93896648  0.45335796    -0.94300
O929        O  0.97843887  0.88379173  0.49080628    -0.92700
O930        O  0.90298702  0.87356253  0.05705632    -0.93100
O931        O  0.89990471  0.92751847  0.01020880    -0.91900
C932        C  0.97570641  0.89423310  0.46300728     1.17200
H933        H  0.95862033  0.92184100  0.08955727     0.33100
H934        H  0.94974325  0.04159917  0.00220011     0.44000
H935        H  0.53277835  0.99478827  0.48643520     0.37500
H936        H  0.54163362  0.13346046  0.07390317     0.34000
H937        H  0.88808352  0.97670941  0.05748640     0.25800
H938        H  0.52669233  0.22944951  0.02656568     0.31700
H939        H  0.60580592  0.18184483  0.02175622     0.37600
H940        H  0.91481342  0.85883396  0.06235389     0.32100
H941        H  0.96435829  0.81991637  0.04500536     0.31000
H942        H  0.51734160  0.87113112  0.02728856     0.32600
H943        H  0.58124380  0.03414967  0.99877079     0.31600
H944        H  0.90891334  0.91967500  0.99311416     0.35600
H945        H  0.94095204  0.98545510  0.43999275     0.28300
H946        H  0.50946059  0.05338590  0.16204665     0.32600
H947        H  0.60760164  0.12237542  0.05808320     0.35400
H948        H  0.96257625  0.84024899  0.07736044     0.28000
H949        H  0.96683626  0.00502999  0.41717949     0.40900
H950        H  0.94611826  0.11827439  0.03455887     0.31000
H951        H  0.91468289  0.03283169  0.06383329     0.38600
H952        H  0.57821020  0.01704788  0.52166508     0.30400
H953        H  0.54863944  0.21544870  0.03836312     0.30500
H954        H  0.53941530  0.08163042  0.14549784     0.30800
C955        C  0.96523244  0.17598554  0.38926277    -0.20600
C956        C  0.94110117  0.17723622  0.39800338    -0.07100
C957        C  0.93026441  0.16290509  0.42805434     0.13700
C958        C  0.94355215  0.14672982  0.44858663    -0.20600
C959        C  0.96688224  0.14305122  0.43953832    -0.07100
C960        C  0.97797573  0.15802972  0.40953169     0.13700
C961        C  0.50244868  0.15698757  0.39818565    -0.24000
H962        H  0.97355341  0.18751740  0.36619773     0.15000
H963        H  0.93506725  0.13513596  0.47159954     0.15000
C964        C  0.90486140  0.16509841  0.43858616    -0.23900
H965        H  0.50884040  0.17223850  0.37447416     0.05300
H966        H  0.49705887  0.11548795  0.39845313     0.08500
H967        H  0.52094611  0.18112853  0.41321069     0.08500
H968        H  0.88584935  0.13731015  0.42513433     0.08500
H969        H  0.90934339  0.20580551  0.43559540     0.08500
H970        H  0.89972173  0.15395689  0.46304415     0.05200
C971        C  0.83628441  0.11134603  0.35759149    -0.20600
C972        C  0.85803615  0.13290516  0.33540056    -0.07100
C973        C  0.85102781  0.12157012  0.30430432     0.13700
C974        C  0.82231426  0.09092522  0.29602986    -0.20600
C975        C  0.80040725  0.07115399  0.31802272    -0.07100
C976        C  0.80746514  0.08134138  0.34928247     0.13700
C977        C  0.78482062  0.06238433  0.37389778    -0.24000
H978        H  0.84183737  0.12039796  0.38140861     0.15000
H979        H  0.81691986  0.08446558  0.27210463     0.15000
C980        C  0.87374658  0.14154809  0.27976412    -0.23900
H981        H  0.79425812  0.07264325  0.39701502     0.05300
H982        H  0.77040111  0.01898483  0.37301178     0.08500
H983        H  0.77210175  0.08095770  0.37098228     0.08500
H984        H  0.88868751  0.12827469  0.28474064     0.08500
H985        H  0.88569210  0.18528185  0.27862970     0.08500
H986        H  0.86449204  0.12644386  0.25691876     0.05200
C987        C  0.93546247  0.31946712  0.30136396    -0.20600
C988        C  0.94256733  0.31181786  0.33087499    -0.07100
C989        C  0.96147318  0.35668292  0.34842450     0.12600
C990        C  0.97293474  0.40733650  0.33576582    -0.20600
C991        C  0.96619794  0.41447705  0.30613430    -0.07100
C992        C  0.94688432  0.37016633  0.28889288     0.13700
C993        C  0.93761691  0.37628014  0.25776924    -0.24000
H994        H  0.92072710  0.28552378  0.28793749     0.15000
H995        H  0.48987694  0.44630629  0.34723816     0.15000
C996        C  0.96893749  0.35213350  0.38082039    -0.23900
H997        H  0.92151274  0.33757636  0.24793504     0.05300
H998        H  0.95614226  0.39522961  0.24200714     0.08500
H999        H  0.92810584  0.40101430  0.25928158     0.08500
H1000       H  0.48115172  0.33617113  0.38209028     0.08500
H1001       H  0.94919041  0.32953098  0.39485023     0.08500
H1002       H  0.48324943  0.39672466  0.39073918     0.05200
C1003       C  0.51147916  0.86841630  0.14681810    -0.20600
C1004       C  0.52899023  0.91893331  0.13434074    -0.07100
C1005       C  0.55752147  0.95020271  0.14365818     0.13700
C1006       C  0.56774324  0.93066361  0.16593496    -0.20600
C1007       C  0.55022450  0.88036462  0.17939794    -0.07100
C1008       C  0.52150377  0.84855988  0.16928853     0.13700
C1009       C  0.50079953  0.79415118  0.18198142    -0.24000
H1010       H  0.48960143  0.84473872  0.13926082     0.15000
H1011       H  0.58974989  0.95520386  0.17271359     0.15000
C1012       C  0.57745018  0.00376089  0.12952039    -0.23900
H1013       H  0.47930699  0.77658142  0.17186506     0.05300
H1014       H  0.49830679  0.79618141  0.20701202     0.08500
H1015       H  0.50838838  0.76717300  0.17668078     0.08500
H1016       H  0.56961733  0.03053631  0.13425013     0.08500
H1017       H  0.57871164  0.99977620  0.10445412     0.08500
H1018       H  0.59933423  0.02235412  0.13872851     0.05200
C1019       C  0.63481187  0.91171416  0.27987486    -0.20600
C1020       C  0.62944912  0.92194686  0.25013922    -0.07100
C1021       C  0.65227532  0.96317592  0.23291833     0.13700
C1022       C  0.67985324  0.99040843  0.24527044    -0.20600
C1023       C  0.68514110  0.97757303  0.27423456    -0.07100
C1024       C  0.66232891  0.93823118  0.29187420     0.13700
C1025       C  0.66711864  0.92282453  0.32298366    -0.24000
H1026       H  0.61745341  0.88143074  0.29358619     0.15000
H1027       H  0.69759106  0.02046183  0.23180299     0.15000
C1028       C  0.64822867  0.97742133  0.20118771    -0.23900
H1029       H  0.64692356  0.89103708  0.33361942     0.05300
H1030       H  0.67647532  0.95738881  0.33830932     0.08500
H1031       H  0.68184673  0.90820175  0.32111136     0.08500
H1032       H  0.63352228  0.99215339  0.20202013     0.08500
H1033       H  0.63949484  0.94239197  0.18617012     0.08500
H1034       H  0.66862762  0.00914947  0.19086777     0.05200
C1035       C  0.53055486  0.70170037  0.22453485    -0.20600
C1036       C  0.54601307  0.74162691  0.24600016    -0.07100
C1037       C  0.54739156  0.72715105  0.27650673     0.13700
C1038       C  0.53415449  0.67359026  0.28430836    -0.20600
C1039       C  0.51942298  0.63402649  0.26266292    -0.07100
C1040       C  0.51738771  0.64808632  0.23244744     0.13700
C1041       C  0.50110553  0.60669201  0.20862153    -0.24000
H1042       H  0.52929566  0.71247383  0.20123669     0.15000
H1043       H  0.53543173  0.66236541  0.30748225     0.15000
C1044       C  0.56208193  0.76740593  0.30129646    -0.23900
H1045       H  0.50037523  0.62456277  0.18666312     0.05300
H1046       H  0.97929611  0.57794435  0.21813751     0.08500
H1047       H  0.51149419  0.58407371  0.20417306     0.08500
H1048       H  0.55405540  0.79459084  0.30192490     0.08500
H1049       H  0.58541606  0.78985143  0.29722334     0.08500
H1050       H  0.55818429  0.74854247  0.32417060     0.05200
C1051       C  0.54935691  0.25155571  0.12376529    -0.20600
C1052       C  0.52505414  0.20359526  0.13284327    -0.07100
C1053       C  0.51387230  0.19854800  0.16267759     0.13700
C1054       C  0.52739396  0.24174777  0.18264980    -0.20600
C1055       C  0.55233127  0.28903341  0.17384484    -0.07100
C1056       C  0.56331732  0.29405172  0.14398052     0.13700
C1057       C  0.58955611  0.34431564  0.13318241    -0.24000
H1058       H  0.55800188  0.25520643  0.10095297     0.15000
H1059       H  0.51883473  0.23826801  0.20548320     0.15000
C1060       C  0.48749215  0.14819033  0.17331398    -0.23900
H1061       H  0.59440522  0.34232734  0.10875288     0.05300
H1062       H  0.60809647  0.35128091  0.14652820     0.08500
H1063       H  0.58654531  0.37806775  0.13603477     0.08500
H1064       H  0.49150343  0.11545794  0.17370695     0.08500
H1065       H  0.97155551  0.12529728  0.16406719     0.08500
H1066       H  0.48093546  0.15200639  0.19671940     0.05200
C1067       C  0.53205921  0.45274083  0.28037156    -0.20600
C1068       C  0.51791127  0.46622287  0.25933833    -0.07100
C1069       C  0.51883231  0.45565147  0.22797044     0.13700
C1070       C  0.53345905  0.43113885  0.21870354    -0.20600
C1071       C  0.54785320  0.41809542  0.23971833    -0.07100
C1072       C  0.54722277  0.42930976  0.27101204     0.13700
C1073       C  0.56217995  0.41633720  0.29480520    -0.24000
H1074       H  0.53191007  0.46205247  0.30424056     0.15000
H1075       H  0.53406769  0.42303673  0.19468612     0.15000
C1076       C  0.00281330  0.46512699  0.20647900    -0.23900
H1077       H  0.55770576  0.42447512  0.31823525     0.05300
H1078       H  0.58555992  0.44095320  0.29106547     0.08500
H1079       H  0.55494158  0.37385547  0.29365856     0.08500
H1080       H  0.01960984  0.49359687  0.19041394     0.08500
H1081       H  0.99094014  0.48295649  0.21529690     0.08500
H1082       H  0.98748707  0.42912593  0.19370782     0.05200
C1083       C  0.68518751  0.44495726  0.23322507    -0.20600
C1084       C  0.68953997  0.45948035  0.26405379    -0.07100
C1085       C  0.66588844  0.44709563  0.28276945     0.13700
C1086       C  0.63865555  0.42242203  0.27001586    -0.20600
C1087       C  0.63423992  0.40959929  0.23890977    -0.07100
C1088       C  0.65781740  0.41974976  0.22042927     0.13700
C1089       C  0.65467812  0.40665772  0.18703246    -0.24000
H1090       H  0.70350270  0.45509351  0.21888577     0.15000
H1091       H  0.62064916  0.41377725  0.28444369     0.15000
C1092       C  0.66930758  0.46087009  0.31607100    -0.23900
H1093       H  0.67553492  0.41980733  0.17585558     0.05300
H1094       H  0.64511708  0.42659932  0.17528329     0.08500
H1095       H  0.64103597  0.36325235  0.18425907     0.08500
H1096       H  0.68492360  0.50370926  0.31906263     0.08500
H1097       H  0.67665704  0.43754379  0.32800076     0.08500
H1098       H  0.64885006  0.45128899  0.32690578     0.05200
C1099       C  0.57586041  0.08992825  0.39680958    -0.20600
C1100       C  0.57790107  0.12327234  0.42045770    -0.07100
C1101       C  0.59872849  0.17780909  0.41863644     0.13700
C1102       C  0.61876386  0.19668888  0.39471570    -0.20600
C1103       C  0.61833898  0.16254591  0.37241413    -0.07100
C1104       C  0.59573859  0.10885997  0.37265171     0.13700
C1105       C  0.59186626  0.07151826  0.34730773    -0.24000
H1106       H  0.55927014  0.04841403  0.39785481     0.15000
H1107       H  0.63552558  0.23809563  0.39415229     0.15000
C1108       C  0.59962780  0.21644390  0.44147165    -0.23900
H1109       H  0.57160952  0.03276150  0.35002008     0.05300
H1110       H  0.60934582  0.06368671  0.34712984     0.08500
H1111       H  0.59129057  0.08866880  0.32501873     0.08500
H1112       H  0.60500476  0.20870591  0.46438157     0.08500
H1113       H  0.57859870  0.21295367  0.44244806     0.08500
H1114       H  0.61596855  0.25787085  0.43519288     0.05200
C1115       C  0.70341445  0.34941338  0.33743488    -0.20600
C1116       C  0.69498555  0.31162134  0.31437462    -0.07100
C1117       C  0.69991854  0.32802782  0.28352251     0.13700
C1118       C  0.71283751  0.38197968  0.27645150    -0.20600
C1119       C  0.72124207  0.41987214  0.29951548    -0.07100
C1120       C  0.71700962  0.40345306  0.33048154     0.13700
C1121       C  0.72655646  0.44242440  0.35636299    -0.24000
H1122       H  0.69966931  0.33651337  0.36108366     0.15000
H1123       H  0.71650528  0.39475136  0.25280168     0.15000
C1124       C  0.69072328  0.28860639  0.25806487    -0.23900
H1125       H  0.71939199  0.42214174  0.37886681     0.05300
H1126       H  0.71788678  0.46831689  0.35389692     0.08500
H1127       H  0.75013231  0.46734069  0.35672481     0.08500
H1128       H  0.66743166  0.25962274  0.25986449     0.08500
H1129       H  0.70227136  0.26748728  0.25945074     0.08500
H1130       H  0.69530851  0.30803130  0.23530177     0.05200
C1131       C  0.70388619  0.14826123  0.29052446    -0.20600
C1132       C  0.68972666  0.14102976  0.31859885    -0.07100
C1133       C  0.68854578  0.10398502  0.33997932     0.13700
C1134       C  0.70126886  0.07535394  0.33251241    -0.20600
C1135       C  0.71497966  0.08221442  0.30443154    -0.07100
C1136       C  0.71661868  0.11943994  0.28320235     0.13700
C1137       C  0.73205667  0.13045204  0.25300278    -0.24000
H1138       H  0.70512142  0.17673538  0.27415598     0.15000
H1139       H  0.70106941  0.04805955  0.34901416     0.15000
C1140       C  0.67526580  0.09576036  0.37133406    -0.23900
H1141       H  0.71690431  0.12184606  0.23418339     0.05300
H1142       H  0.74177397  0.10644320  0.24947575     0.08500
H1143       H  0.74935878  0.17273070  0.25169515     0.08500
H1144       H  0.65193559  0.07769095  0.36957339     0.08500
H1145       H  0.68493916  0.13405326  0.38341868     0.08500
H1146       H  0.67860249  0.06862860  0.38555363     0.05200
C1147       C  0.87463639  0.94803434  0.18328289    -0.20600
C1148       C  0.87173445  0.90676513  0.20175921    -0.07100
C1149       C  0.89081697  0.88899097  0.19693889     0.13700
C1150       C  0.91130483  0.91170725  0.17333733    -0.20600
C1151       C  0.91297970  0.95091945  0.15420595    -0.07100
C1152       C  0.89486570  0.97010655  0.15957931     0.13700
C1153       C  0.89696216  0.01415731  0.14046806    -0.24000
H1154       H  0.86035516  0.96209531  0.18658161     0.15000
H1155       H  0.92543355  0.89739875  0.16901569     0.15000
C1156       C  0.89009867  0.84652195  0.21639346    -0.23900
H1157       H  0.88204168  0.02597060  0.14866445     0.05300
H1158       H  0.89162570  0.00135113  0.11645016     0.08500
H1159       H  0.91894805  0.04931811  0.14145919     0.08500
H1160       H  0.87007977  0.80809782  0.21254731     0.08500
H1161       H  0.89185117  0.85737939  0.24084653     0.08500
H1162       H  0.90800651  0.84102223  0.21072718     0.05200
C1163       C  0.78512335  0.98020232  0.25510676    -0.20600
C1164       C  0.77180136  0.96900131  0.28373725    -0.07100
C1165       C  0.77165596  0.93051674  0.30259553     0.13700
C1166       C  0.78607242  0.90577717  0.29281414    -0.20600
C1167       C  0.80039485  0.91823953  0.26442422    -0.07100
C1168       C  0.79964273  0.95594172  0.24523671     0.13700
C1169       C  0.81326256  0.97025196  0.21396608    -0.24000
H1170       H  0.78416391  0.00846493  0.24036202     0.15000
H1171       H  0.78608144  0.87641828  0.30742362     0.15000
C1172       C  0.75581864  0.91472511  0.33261073    -0.23900
H1173       H  0.80829182  0.99681948  0.20145603     0.05300
H1174       H  0.80540143  0.93410581  0.20008165     0.08500
H1175       H  0.83673933  0.99168873  0.21619852     0.08500
H1176       H  0.73302093  0.90060623  0.32896192     0.08500
H1177       H  0.76528114  0.94908163  0.34799677     0.08500
H1178       H  0.75697676  0.88261257  0.34401087     0.05200
C1179       C  0.79197924  0.71670876  0.23544878    -0.20600
C1180       C  0.79887600  0.75166550  0.25987163    -0.07100
C1181       C  0.79225316  0.73157317  0.29002712     0.13700
C1182       C  0.77980415  0.67712002  0.29500832    -0.20600
C1183       C  0.77304610  0.64221442  0.27056100    -0.07100
C1184       C  0.77828525  0.66205653  0.24030642     0.13700
C1185       C  0.76913573  0.62605741  0.21300715    -0.24000
H1186       H  0.79658196  0.73221762  0.21232109     0.15000
H1187       H  0.77506388  0.66151741  0.31810210     0.15000
C1188       C  0.79894615  0.76738889  0.31700199    -0.23900
H1189       H  0.77724985  0.64875910  0.19130681     0.05300
H1190       H  0.74555907  0.60235590  0.21181943     0.08500
H1191       H  0.77699746  0.59879049  0.21441708     0.08500
H1192       H  0.78644338  0.78669770  0.31584838     0.08500
H1193       H  0.82204775  0.79800632  0.31707050     0.08500
H1194       H  0.79347511  0.74523793  0.33893928     0.05200
C1195       C  0.98177739  0.85456108  0.41587168    -0.20600
C1196       C  0.96457295  0.85101542  0.44061355    -0.07100
C1197       C  0.93601688  0.80839584  0.44236054     0.13700
C1198       C  0.92525903  0.77017754  0.41931327    -0.20600
C1199       C  0.94246094  0.77294391  0.39469771    -0.07100
C1200       C  0.97121851  0.81570253  0.39304047     0.13700
C1201       C  0.99056821  0.82186183  0.36676619    -0.24000
H1202       H  0.50189529  0.88960551  0.41344947     0.15000
H1203       H  0.90324586  0.73771960  0.42059563     0.15000
C1204       C  0.91659552  0.80417006  0.46807451    -0.23900
H1205       H  0.50998188  0.86112357  0.36726124     0.05300
H1206       H  0.98074277  0.82228220  0.34485841     0.08500
H1207       H  0.99439283  0.78887872  0.36687411     0.08500
H1208       H  0.91527765  0.84007086  0.46852149     0.08500
H1209       H  0.92498533  0.80019445  0.49016882     0.08500
H1210       H  0.89467655  0.76932281  0.46551048     0.05200
C1211       C  0.85672829  0.64435716  0.29647456    -0.20600
C1212       C  0.86126374  0.65614944  0.32769694    -0.07100
C1213       C  0.83758650  0.64215980  0.34695077     0.13700
C1214       C  0.81003235  0.61564391  0.33453704    -0.20600
C1215       C  0.80556736  0.60237741  0.30349267    -0.07100
C1216       C  0.82926478  0.61717985  0.28423778     0.13700
C1217       C  0.82571403  0.60284047  0.25100630    -0.24000
H1218       H  0.87482861  0.65520833  0.28163688     0.15000
H1219       H  0.79170412  0.60317723  0.34934553     0.15000
C1220       C  0.84097330  0.65178982  0.38079902    -0.23900
H1221       H  0.84628308  0.61367010  0.23992043     0.05300
H1222       H  0.81751286  0.62473873  0.23909400     0.08500
H1223       H  0.81077005  0.55967013  0.24830747     0.08500
H1224       H  0.85417132  0.69481687  0.38523216     0.08500
H1225       H  0.85132264  0.63188195  0.39081942     0.08500
H1226       H  0.82009910  0.63617474  0.39253960     0.05200
C1227       C  0.95988545  0.62953093  0.34781173    -0.20600
C1228       C  0.94554571  0.64314253  0.32699837    -0.07100
C1229       C  0.94353562  0.62754129  0.29610067     0.13700
C1230       C  0.95520111  0.59779623  0.28714973    -0.20600
C1231       C  0.96878058  0.58307664  0.30806050    -0.07100
C1232       C  0.97130568  0.59915511  0.33876529     0.13700
C1233       C  0.98614278  0.58466259  0.36189341    -0.24000
H1234       H  0.96138347  0.64129544  0.37144524     0.15000
H1235       H  0.95356418  0.58548738  0.26361574     0.15000
C1236       C  0.92965950  0.64268204  0.27211092    -0.23900
H1237       H  0.98692510  0.60184930  0.38459577     0.05300
H1238       H  0.00834910  0.59952528  0.35430013     0.08500
H1239       H  0.97463820  0.54114448  0.36470568     0.08500
H1240       H  0.93896165  0.68601742  0.27232390     0.08500
H1241       H  0.90635127  0.62152253  0.27627551     0.08500
H1242       H  0.43693911  0.64133110  0.24788090     0.05200
C1243       C  0.93219202  0.73049388  0.87225949     0.80000
N1244       N  0.94672259  0.70832804  0.86150305    -0.78300
C1245       C  0.93477933  0.66943780  0.84030840     0.82400
N1246       N  0.90810372  0.65221041  0.83052308    -0.78300
C1247       C  0.89311502  0.67327744  0.84108291     0.82500
N1248       N  0.90529127  0.71249991  0.86210780    -0.80000
C1249       C  0.84753349  0.88428356  0.72289913     0.80000
N1250       N  0.83565752  0.83278913  0.73094448    -0.78300
C1251       C  0.81291154  0.80879031  0.75035216     0.82400
N1252       N  0.80134534  0.83636432  0.76112647    -0.78300
C1253       C  0.81256585  0.88770454  0.75261586     0.82500
N1254       N  0.83571131  0.91120841  0.73374237    -0.80000
C1255       C  0.64151688  0.18359088  0.85199541     0.80000
N1256       N  0.65546945  0.23486077  0.84274500    -0.78300
C1257       C  0.67898075  0.25484032  0.82446393     0.82400
N1258       N  0.68928730  0.22378276  0.81653533    -0.78300
C1259       C  0.67595048  0.17276903  0.82653479     0.82500
N1260       N  0.65201942  0.15320799  0.84394361    -0.80000
C1261       C  0.76355942  0.58605217  0.77807325     0.02000
C1262       C  0.77796802  0.56643520  0.79476024     0.02000
C1263       C  0.76409411  0.51212495  0.80111018    -0.18500
C1264       C  0.73595407  0.47666996  0.79199920     0.02000
C1265       C  0.72165607  0.49594824  0.77490717     0.02000
C1266       C  0.73544216  0.55035123  0.76874345    -0.18500
H1267       H  0.72384822  0.56512656  0.75695048     0.04000
H1268       H  0.77556024  0.49723218  0.81306974     0.04000
C1269       C  0.56786689  0.33192273  0.69664846     0.80000
N1270       N  0.55294744  0.35246211  0.70837513    -0.78300
C1271       C  0.56481293  0.39133687  0.72951188     0.82400
N1272       N  0.59179075  0.40944158  0.73877978    -0.78300
C1273       C  0.60706310  0.38932161  0.72739344     0.82500
N1274       N  0.59496718  0.35040972  0.70615373    -0.80000
C1275       C  0.56569633  0.86333815  0.70188355     0.80000
N1276       N  0.55123989  0.81235566  0.71191819    -0.78300
C1277       C  0.56184506  0.79660996  0.73456942     0.82400
N1278       N  0.58731687  0.83213809  0.74680096    -0.78300
C1279       C  0.60214649  0.88321336  0.73736504     0.82500
N1280       N  0.59111749  0.89842113  0.71494908    -0.80000
C1281       C  0.92957758  0.18859975  0.87138362     0.80000
N1282       N  0.94430320  0.23887680  0.86027621    -0.78300
C1283       C  0.93218223  0.25579609  0.84012463     0.82400
N1284       N  0.90503230  0.22137489  0.83099651    -0.78300
C1285       C  0.89007773  0.17113737  0.84190911     0.82500
N1286       N  0.90226980  0.15520026  0.86246614    -0.80000
C1287       C  0.98530900  0.55314146  0.79719260     0.02000
C1288       C  0.50744484  0.57767126  0.77157460     0.02000
C1289       C  0.51769947  0.54675109  0.76024967    -0.18500
C1290       C  0.50627356  0.49476604  0.77043166     0.02000
C1291       C  0.98482154  0.47089276  0.79507591     0.02000
C1292       C  0.97396065  0.50071223  0.80665647    -0.18500
H1293       H  0.95630087  0.48268562  0.82280556     0.04000
H1294       H  0.53526987  0.56374775  0.74396808     0.04000
C1295       C  0.77136367  0.04740071  0.80895842     0.02000
C1296       C  0.75775454  0.99819142  0.79378377     0.02000
C1297       C  0.72981578  0.97648803  0.78346828    -0.18500
C1298       C  0.71522905  0.00284111  0.78752385     0.02000
C1299       C  0.72896375  0.05244374  0.80183389     0.02000
C1300       C  0.75674928  0.07396977  0.81264881    -0.18500
H1301       H  0.76734881  0.11245156  0.82331576     0.04000
H1302       H  0.71946114  0.93903229  0.77162027     0.04000
Zr1303     Zr  0.50232144  0.03497438  0.59671476     2.17500
O1304       O  0.52527979  0.05358048  0.64633748    -0.51600
O1305       O  0.95913436  0.99204606  0.63047818    -0.74800
O1306       O  0.51447037  0.11958737  0.61829774    -0.81600
O1307       O  0.51372350  0.91987698  0.58439468    -0.83300
O1308       O  0.51094330  0.17077904  0.58238283    -0.78900
O1309       O  0.52133127  0.98437485  0.61762822    -0.90600
O1310       O  0.92072873  0.96589906  0.60047651    -0.76500
O1311       O  0.96863056  0.04956829  0.57233372    -0.86000
O1312       O  0.96789777  0.95176270  0.57408665    -0.85700
O1313       O  0.53098700  0.10613936  0.56146055    -0.72500
O1314       O  0.52961938  0.01610170  0.56198399    -0.84600
Zr1315     Zr  0.99179903  0.01952970  0.97908044     2.26400
Zr1316     Zr  0.99704197  0.11866313  0.53624495     2.06300
Zr1317     Zr  0.99452497  0.93282093  0.53852380     2.10000
Zr1318     Zr  0.93577884  0.96835708  0.54825000     1.78800
O1319       O  0.53094937  0.91260491  0.52369678    -0.93400
O1320       O  0.89973173  0.99178296  0.54595286    -0.41200
O1321       O  0.96186095  0.94875475  0.51266988    -0.77900
O1322       O  0.96234164  0.03801522  0.51207732    -0.96600
O1323       O  0.52430909  0.10209493  0.50011938    -0.89900
O1324       O  0.52339546  0.00508099  0.50102730    -0.92700
C1325       C  0.93248205  0.97329509  0.62654355     1.01100
C1326       C  0.52249791  0.94402802  0.60995787     1.14000
C1327       C  0.51630464  0.16233596  0.60950719     1.04800
O1328       O  0.96361647  0.14622859  0.54767175    -0.94900
O1329       O  0.98488657  0.14076110  0.99004510    -0.90600
O1330       O  0.98024045  0.07988193  0.95583635    -0.83700
C1331       C  0.97884318  0.12007871  0.96334263     1.11400
O1332       O  0.59313575  0.10644277  0.56364596    -0.96800
Zr1333     Zr  0.55655558  0.08531863  0.52574643     1.88900
O1334       O  0.53139660  0.06539220  0.94490675    -0.73500
O1335       O  0.53527817  0.20875838  0.52024926    -0.52700
O1336       O  0.58800621  0.18087359  0.52930250    -0.97400
O1337       O  0.58784853  0.05313255  0.51286944    -0.54600
O1338       O  0.56970067  0.10755380  0.97586145    -0.74000
C1339       C  0.55817674  0.09676330  0.94948221     0.98400
O1340       O  0.96322752  0.98394379  0.93318607    -0.62800
O1341       O  0.95794907  0.84184197  0.55124840    -0.57600
O1342       O  0.98098134  0.93733188  0.95543675    -0.94300
O1343       O  0.97951227  0.88248531  0.99258858    -0.92700
O1344       O  0.90806135  0.87409989  0.55965898    -0.93100
O1345       O  0.89879623  0.92422680  0.51008664    -0.91900
C1346       C  0.97639529  0.89270532  0.96489400     1.17200
H1347       H  0.95825258  0.92386488  0.58914266     0.33100
H1348       H  0.94853744  0.04226800  0.50122496     0.44000
H1349       H  0.53050328  0.99131285  0.98873646     0.37500
H1350       H  0.54509726  0.13754398  0.57193708     0.34000
H1351       H  0.88405554  0.96584445  0.55945480     0.25800
H1352       H  0.52607867  0.22965307  0.51993664     0.31700
H1353       H  0.60616518  0.18893583  0.51967261     0.37600
H1354       H  0.91120801  0.85737878  0.54181516     0.32100
H1355       H  0.96723249  0.82154115  0.54767920     0.31000
H1356       H  0.52358001  0.87744353  0.53312533     0.32600
H1357       H  0.58641138  0.04772220  0.49052478     0.31600
H1358       H  0.90800968  0.91645883  0.49317475     0.35600
H1359       H  0.94563815  0.98426470  0.93709820     0.28300
H1360       H  0.51258681  0.05727304  0.66079907     0.32600
H1361       H  0.61167993  0.12849792  0.55296823     0.35400
H1362       H  0.95548566  0.84113906  0.57367782     0.28000
H1363       H  0.97360981  0.01064454  0.91690028     0.40900
H1364       H  0.94925278  0.11843486  0.56149961     0.31000
H1365       H  0.90811597  0.02566970  0.55695009     0.38600
H1366       H  0.57342592  0.01051705  0.03193000     0.30400
H1367       H  0.54831750  0.22264724  0.53783014     0.30500
H1368       H  0.54278697  0.08916119  0.64477409     0.30800
C1369       C  0.96009305  0.20687497  0.91680818    -0.20600
C1370       C  0.94278582  0.17127725  0.89414552    -0.07100
C1371       C  0.93843007  0.12011466  0.89380835     0.13700
C1372       C  0.95086317  0.10569386  0.91642725    -0.20600
C1373       C  0.96762177  0.14056837  0.93973647    -0.07100
C1374       C  0.97234230  0.19220585  0.93976625     0.13700
C1375       C  0.48766628  0.23231469  0.96244108    -0.24000
H1376       H  0.96352466  0.24617658  0.91698350     0.15000
H1377       H  0.94689003  0.06603502  0.91606851     0.15000
C1378       C  0.92140024  0.08065598  0.86927119    -0.23900
H1379       H  0.49006365  0.27121439  0.95818046     0.05300
H1380       H  0.50934488  0.23862537  0.96303601     0.08500
H1381       H  0.47698799  0.21791455  0.98500318     0.08500
H1382       H  0.93010055  0.09830417  0.84642823     0.08500
H1383       H  0.89866574  0.06835032  0.87101839     0.08500
H1384       H  0.92219839  0.04431397  0.87134462     0.05200
C1385       C  0.83905140  0.11515924  0.85627520    -0.20600
C1386       C  0.86002613  0.13550445  0.83322076    -0.07100
C1387       C  0.85181467  0.12387939  0.80242399     0.13700
C1388       C  0.82275592  0.09348387  0.79537627    -0.20600
C1389       C  0.80167208  0.07472914  0.81828981    -0.07100
C1390       C  0.80991514  0.08593864  0.84919588     0.13700
C1391       C  0.78824026  0.06885105  0.87473079    -0.24000
H1392       H  0.84550704  0.12443577  0.87986094     0.15000
H1393       H  0.81642214  0.08595864  0.77171539     0.15000
C1394       C  0.87360256  0.14293679  0.77695640    -0.23900
H1395       H  0.79849041  0.07840433  0.89745287     0.05300
H1396       H  0.77279144  0.02572095  0.87402661     0.08500
H1397       H  0.77650169  0.08948844  0.87270461     0.08500
H1398       H  0.88834331  0.12885565  0.78094615     0.08500
H1399       H  0.88593122  0.18669977  0.77580252     0.08500
H1400       H  0.86345047  0.12795118  0.75444481     0.05200
C1401       C  0.93739082  0.32195086  0.80176802    -0.20600
C1402       C  0.94762478  0.31140800  0.82847374    -0.07100
C1403       C  0.97095972  0.35443345  0.84373701     0.12600
C1404       C  0.98261252  0.40596049  0.83223416    -0.20600
C1405       C  0.97208011  0.41573630  0.80577796    -0.07100
C1406       C  0.94921395  0.37340143  0.79039287     0.13700
C1407       C  0.93690661  0.38256837  0.76226280    -0.24000
H1408       H  0.91978378  0.28975978  0.78967934     0.15000
H1409       H  0.49848879  0.44191263  0.84219855     0.15000
C1410       C  0.98345929  0.34743652  0.87247818    -0.23900
H1411       H  0.91861536  0.34521311  0.75338586     0.05300
H1412       H  0.95339547  0.40029273  0.74408413     0.08500
H1413       H  0.92937697  0.40965817  0.76755018     0.08500
H1414       H  0.49250716  0.32621458  0.86495544     0.08500
H1415       H  0.96674007  0.32865854  0.89052573     0.08500
H1416       H  0.50006701  0.38848170  0.87909754     0.05200
C1417       C  0.52057463  0.86910433  0.63720395    -0.20600
C1418       C  0.53449973  0.92374883  0.63231610    -0.07100
C1419       C  0.55931618  0.95772010  0.64903723     0.13700
C1420       C  0.56864630  0.93637902  0.67113577    -0.20600
C1421       C  0.55423845  0.88172849  0.67716031    -0.07100
C1422       C  0.52992386  0.84746270  0.65933517     0.13700
C1423       C  0.51350364  0.78819822  0.66293487    -0.24000
H1424       H  0.50178458  0.84314570  0.62399635     0.15000
H1425       H  0.58737242  0.96328811  0.68403308     0.15000
C1426       C  0.57676209  0.01648026  0.64321186    -0.23900
H1427       H  0.49588870  0.76840526  0.64630600     0.05300
H1428       H  0.50373781  0.77672094  0.68608028     0.08500
H1429       H  0.52788616  0.77324645  0.65893996     0.08500
H1430       H  0.56470744  0.03469545  0.65055944     0.08500
H1431       H  0.58231858  0.02454382  0.61858098     0.08500
H1432       H  0.59696764  0.03598675  0.65617766     0.05200
C1433       C  0.63602537  0.90639873  0.77988472    -0.20600
C1434       C  0.63043529  0.92031462  0.75124784    -0.07100
C1435       C  0.65262691  0.96619226  0.73624083     0.13700
C1436       C  0.67996063  0.99357512  0.74911462    -0.20600
C1437       C  0.68555305  0.97704023  0.77668223    -0.07100
C1438       C  0.66322123  0.93369973  0.79258280     0.13700
C1439       C  0.66815877  0.91561108  0.82276722    -0.24000
H1440       H  0.61914415  0.87314590  0.79232996     0.15000
H1441       H  0.69732527  0.02693986  0.73706321     0.15000
C1442       C  0.64826031  0.98615693  0.70647056    -0.23900
H1443       H  0.64820016  0.88156171  0.83240254     0.05300
H1444       H  0.67652003  0.94831570  0.83942998     0.08500
H1445       H  0.68374872  0.90315763  0.81987603     0.08500
H1446       H  0.63216641  0.99730057  0.70969715     0.08500
H1447       H  0.64123715  0.95538628  0.68868086     0.08500
H1448       H  0.66816111  0.02187200  0.69808007     0.05200
C1449       C  0.53157050  0.70069818  0.72320135    -0.20600
C1450       C  0.54678733  0.74064013  0.74474127    -0.07100
C1451       C  0.54808163  0.72615501  0.77527209     0.13700
C1452       C  0.53571854  0.67283294  0.78287574    -0.20600
C1453       C  0.52129770  0.63327802  0.76122125    -0.07100
C1454       C  0.51878321  0.64710661  0.73107702     0.13700
C1455       C  0.50210747  0.60553635  0.70744868    -0.24000
H1456       H  0.53013476  0.71141357  0.69994917     0.15000
H1457       H  0.53708421  0.66168154  0.80606819     0.15000
C1458       C  0.56171829  0.76602480  0.80039939    -0.23900
H1459       H  0.50112578  0.62329952  0.68555347     0.05300
H1460       H  0.97980979  0.57357620  0.71862367     0.08500
H1461       H  0.51227951  0.58259545  0.70277667     0.08500
H1462       H  0.55399363  0.79367888  0.80005832     0.08500
H1463       H  0.58514663  0.78767416  0.79761038     0.08500
H1464       H  0.55657133  0.74687297  0.82328224     0.05200
C1465       C  0.55065641  0.25552689  0.62259518    -0.20600
C1466       C  0.52743400  0.20606156  0.63161222    -0.07100
C1467       C  0.51677039  0.19878288  0.66185273     0.13700
C1468       C  0.53025534  0.24077782  0.68256376    -0.20600
C1469       C  0.55434146  0.28937781  0.67386605    -0.07100
C1470       C  0.56427329  0.29722172  0.64338420     0.13700
C1471       C  0.58887687  0.34978312  0.63260043    -0.24000
H1472       H  0.55869473  0.26111492  0.59935629     0.15000
H1473       H  0.52223674  0.23547498  0.70579364     0.15000
C1474       C  0.49077029  0.14745592  0.67209651    -0.23900
H1475       H  0.59320065  0.34967522  0.60781188     0.05300
H1476       H  0.60837940  0.35926127  0.64498687     0.08500
H1477       H  0.58407414  0.38103310  0.63682472     0.08500
H1478       H  0.49508540  0.11515837  0.67140555     0.08500
H1479       H  0.97192083  0.13881687  0.65761240     0.08500
H1480       H  0.48435051  0.14977712  0.69584329     0.05200
C1481       C  0.53584304  0.45667957  0.78040281    -0.20600
C1482       C  0.51954995  0.46533267  0.75963158    -0.07100
C1483       C  0.51784222  0.44883330  0.72905612     0.13700
C1484       C  0.53225918  0.42367974  0.72027632    -0.20600
C1485       C  0.54901849  0.41579198  0.74093148    -0.07100
C1486       C  0.55065069  0.43233149  0.77154765     0.13700
C1487       C  0.56758916  0.42411594  0.79523997    -0.24000
H1488       H  0.53761776  0.47046862  0.80361138     0.15000
H1489       H  0.53099896  0.41142240  0.69676300     0.15000
C1490       C  0.00140273  0.45868113  0.70749452    -0.23900
H1491       H  0.56441966  0.43551903  0.81836466     0.05300
H1492       H  0.59065773  0.44895487  0.78972153     0.08500
H1493       H  0.56085809  0.38185017  0.79616897     0.08500
H1494       H  0.01587659  0.48433377  0.68885672     0.08500
H1495       H  0.99056094  0.47791197  0.71718514     0.08500
H1496       H  0.98483627  0.42039844  0.69763374     0.05200
C1497       C  0.68732515  0.44556428  0.73331215    -0.20600
C1498       C  0.69191464  0.46127263  0.76399106    -0.07100
C1499       C  0.66835179  0.44931694  0.78271887     0.13700
C1500       C  0.64100618  0.42387670  0.77021314    -0.20600
C1501       C  0.63627518  0.40967538  0.73930248    -0.07100
C1502       C  0.65975975  0.41930163  0.72077890     0.13700
C1503       C  0.65628950  0.40451724  0.68759491    -0.24000
H1504       H  0.70554057  0.45522436  0.71892932     0.15000
H1505       H  0.62311575  0.41553832  0.78474410     0.15000
C1506       C  0.67197104  0.46422607  0.81584805    -0.23900
H1507       H  0.67699983  0.41644992  0.67645818     0.05300
H1508       H  0.64704603  0.42458938  0.67538062     0.08500
H1509       H  0.64220659  0.36106045  0.68532061     0.08500
H1510       H  0.68760958  0.50716471  0.81838048     0.08500
H1511       H  0.67936876  0.44129520  0.82810364     0.08500
H1512       H  0.65158593  0.45498471  0.82670500     0.05200
C1513       C  0.57360737  0.09087899  0.89686659    -0.20600
C1514       C  0.57732639  0.12171685  0.92263526    -0.07100
C1515       C  0.59986085  0.17539768  0.92262497     0.13700
C1516       C  0.61969593  0.19508423  0.89846102    -0.20600
C1517       C  0.61747493  0.16283836  0.87407221    -0.07100
C1518       C  0.59340579  0.11077769  0.87253499     0.13700
C1519       C  0.58812675  0.07644773  0.84510050    -0.24000
H1520       H  0.55572942  0.05039952  0.89626886     0.15000
H1521       H  0.63772521  0.23540966  0.89926937     0.15000
C1522       C  0.60294695  0.21258780  0.94766122    -0.23900
H1523       H  0.56712279  0.03883878  0.84667998     0.05300
H1524       H  0.60464434  0.06617819  0.84313304     0.08500
H1525       H  0.58832171  0.09757186  0.82411424     0.08500
H1526       H  0.60859522  0.20125968  0.96924909     0.08500
H1527       H  0.58270885  0.21169198  0.95062997     0.08500
H1528       H  0.62010790  0.25395740  0.94240913     0.05200
C1529       C  0.70267059  0.34905540  0.83853202    -0.20600
C1530       C  0.69432281  0.31125538  0.81547518    -0.07100
C1531       C  0.70010566  0.32794791  0.78466540     0.13700
C1532       C  0.71366636  0.38206871  0.77765753    -0.20600
C1533       C  0.72206903  0.41996142  0.80072460    -0.07100
C1534       C  0.71713275  0.40326468  0.83166920     0.13700
C1535       C  0.72703295  0.44208706  0.85765998    -0.24000
H1536       H  0.69839141  0.33603776  0.86215302     0.15000
H1537       H  0.71793945  0.39499537  0.75404016     0.15000
C1538       C  0.69124708  0.28875070  0.75913003    -0.23900
H1539       H  0.71883525  0.42174697  0.88002055     0.05300
H1540       H  0.71971820  0.47000728  0.85478193     0.08500
H1541       H  0.75061331  0.46486731  0.85871263     0.08500
H1542       H  0.66787932  0.26019316  0.76033253     0.08500
H1543       H  0.70249718  0.26713792  0.76098213     0.08500
H1544       H  0.69648852  0.30844905  0.73640856     0.05200
C1545       C  0.70402348  0.14892197  0.79282151    -0.20600
C1546       C  0.68824225  0.13964663  0.81996733    -0.07100
C1547       C  0.68559757  0.10044036  0.84070543     0.13700
C1548       C  0.69872784  0.07223813  0.83365015    -0.20600
C1549       C  0.71446837  0.08186091  0.80669002    -0.07100
C1550       C  0.71717473  0.12062882  0.78594056     0.13700
C1551       C  0.73399735  0.13355183  0.75655349    -0.24000
H1552       H  0.70622727  0.17864297  0.77679745     0.15000
H1553       H  0.69717868  0.04298349  0.84959883     0.15000
C1554       C  0.67017347  0.08917899  0.87099850    -0.23900
H1555       H  0.71981728  0.12679646  0.73701357     0.05300
H1556       H  0.74356096  0.10927737  0.75305218     0.08500
H1557       H  0.75152061  0.17570066  0.75653260     0.08500
H1558       H  0.64706239  0.07179710  0.86738773     0.08500
H1559       H  0.67912783  0.12612426  0.88435969     0.08500
H1560       H  0.67234003  0.06035226  0.88493462     0.05200
C1561       C  0.87341453  0.94969275  0.68132150    -0.20600
C1562       C  0.87158021  0.91003948  0.70043279    -0.07100
C1563       C  0.89233256  0.89595692  0.69709514     0.13700
C1564       C  0.91316290  0.91991059  0.67387332    -0.20600
C1565       C  0.91352250  0.95671246  0.65362481    -0.07100
C1566       C  0.89400402  0.97309976  0.65802520     0.13700
C1567       C  0.89496897  0.01570783  0.63846515    -0.24000
H1568       H  0.85796177  0.96123143  0.68374689     0.15000
H1569       H  0.92845793  0.90799717  0.67057405     0.15000
C1570       C  0.89292462  0.85602973  0.71772457    -0.23900
H1571       H  0.87917425  0.02566627  0.64625210     0.05300
H1572       H  0.89004906  0.00253134  0.61447298     0.08500
H1573       H  0.91647797  0.05214838  0.63956299     0.08500
H1574       H  0.87386231  0.81621048  0.71392551     0.08500
H1575       H  0.89362093  0.86752172  0.74193557     0.08500
H1576       H  0.91192469  0.85330645  0.71319213     0.05200
C1577       C  0.78369737  0.97936543  0.75498056    -0.20600
C1578       C  0.77294832  0.97133782  0.78480004    -0.07100
C1579       C  0.77462607  0.93496211  0.80392941     0.13700
C1580       C  0.78774466  0.90843958  0.79291033    -0.20600
C1581       C  0.79927056  0.91746964  0.76317820    -0.07100
C1582       C  0.79710960  0.95363982  0.74397309     0.13700
C1583       C  0.80816990  0.96487537  0.71158145    -0.24000
H1584       H  0.78153951  0.00621426  0.74017240     0.15000
H1585       H  0.78914374  0.88069922  0.80766812     0.15000
C1586       C  0.76216731  0.92339025  0.83566738    -0.23900
H1587       H  0.80213299  0.99014863  0.69932545     0.05300
H1588       H  0.79934331  0.92742612  0.69875206     0.08500
H1589       H  0.83175221  0.98660029  0.71164670     0.08500
H1590       H  0.73911310  0.90908899  0.83481951     0.08500
H1591       H  0.77337955  0.95977343  0.84940152     0.08500
H1592       H  0.76453530  0.89276603  0.84724865     0.05200
C1593       C  0.79307854  0.71611356  0.73424597    -0.20600
C1594       C  0.80015224  0.75214510  0.75812270    -0.07100
C1595       C  0.79581900  0.73367916  0.78858122     0.13700
C1596       C  0.78432005  0.67961006  0.79438556    -0.20600
C1597       C  0.77688025  0.64331692  0.77052106    -0.07100
C1598       C  0.78101175  0.66189878  0.73996213     0.13700
C1599       C  0.77266886  0.62504706  0.71315920    -0.24000
H1600       H  0.79641504  0.73040401  0.71089028     0.15000
H1601       H  0.78050707  0.66540059  0.81772864     0.15000
C1602       C  0.80395988  0.77104758  0.81499808    -0.23900
H1603       H  0.77989050  0.64703799  0.69116194     0.05300
H1604       H  0.74918100  0.59880645  0.71216554     0.08500
H1605       H  0.78227130  0.60063306  0.71499364     0.08500
H1606       H  0.79083589  0.78917305  0.81504231     0.08500
H1607       H  0.82685555  0.80256139  0.81308203     0.08500
H1608       H  0.80053262  0.75047722  0.83723118     0.05200
C1609       C  0.98309661  0.85471115  0.91734944    -0.20600
C1610       C  0.96573140  0.84968016  0.94230645    -0.07100
C1611       C  0.93764306  0.80541477  0.94423975     0.13700
C1612       C  0.92742638  0.76750043  0.92100855    -0.20600
C1613       C  0.94475668  0.77196982  0.89610498    -0.07100
C1614       C  0.97313845  0.81604239  0.89441164     0.13700
C1615       C  0.99270315  0.82364964  0.86805504    -0.24000
H1616       H  0.49793582  0.89762842  0.91071709     0.15000
H1617       H  0.90573939  0.73386495  0.92239275     0.15000
C1618       C  0.91810588  0.79892559  0.97036720    -0.23900
H1619       H  0.50503073  0.87579153  0.86178824     0.05300
H1620       H  0.98271962  0.82386241  0.84622273     0.08500
H1621       H  0.99712388  0.79141606  0.86787045     0.08500
H1622       H  0.91551737  0.83340223  0.97118052     0.08500
H1623       H  0.92719585  0.79593504  0.99220898     0.08500
H1624       H  0.89664775  0.76269765  0.96801024     0.05200
C1625       C  0.85813248  0.63150905  0.79938892    -0.20600
C1626       C  0.86385032  0.65247677  0.82904322    -0.07100
C1627       C  0.84106255  0.64826693  0.84666006     0.13700
C1628       C  0.81338535  0.62199070  0.83440881    -0.20600
C1629       C  0.80792716  0.60037128  0.80498319    -0.07100
C1630       C  0.83058433  0.60484430  0.78744025     0.13700
C1631       C  0.82560531  0.57975295  0.75648296    -0.24000
H1632       H  0.87526799  0.63485949  0.78551770     0.15000
H1633       H  0.79568633  0.61664660  0.84825109     0.15000
C1634       C  0.84528379  0.66888387  0.87876032    -0.23900
H1635       H  0.84558914  0.58601468  0.74610238     0.05300
H1636       H  0.81704479  0.59729874  0.74099233     0.08500
H1637       H  0.81021920  0.53652976  0.75841811     0.08500
H1638       H  0.85997385  0.71242111  0.87861727     0.08500
H1639       H  0.85419401  0.65030236  0.89304388     0.08500
H1640       H  0.82490912  0.66000821  0.88948370     0.05200
C1641       C  0.96311941  0.62788479  0.84960925    -0.20600
C1642       C  0.94969310  0.64351244  0.82880731    -0.07100
C1643       C  0.94912911  0.63100053  0.79755972     0.13700
C1644       C  0.96017376  0.60034218  0.78832870    -0.20600
C1645       C  0.97277027  0.58327398  0.80914914    -0.07100
C1646       C  0.97478331  0.59802495  0.84012497     0.13700
C1647       C  0.98968573  0.58334356  0.86303284    -0.24000
H1648       H  0.96388900  0.63799492  0.87347332     0.15000
H1649       H  0.95911392  0.58973928  0.76453772     0.15000
C1650       C  0.93774453  0.65103790  0.77350681    -0.23900
H1651       H  0.99040387  0.60011094  0.88585748     0.05300
H1652       H  0.01193869  0.59871593  0.85535024     0.08500
H1653       H  0.97832804  0.53982568  0.86563726     0.08500
H1654       H  0.94777064  0.69441554  0.77564286     0.08500
H1655       H  0.91435228  0.63093687  0.77587981     0.08500
H1656       H  0.45016086  0.66128812  0.74836840     0.05200
loop_ 
_geom_bond_atom_site_label_1 
_geom_bond_atom_site_label_2 
_geom_bond_distance 
_geom_bond_site_symmetry_2 
_ccdc_geom_bond_type 
C1            N2   1.362       .  A
C1            N6   1.364       .  A
C1          C371   1.487       .  S
N2            C3   1.360       .  A
C3            N4   1.355       .  A
C3          C400   1.484       .  S
N4            C5   1.356       .  A
C5            N6   1.361       .  A
C5          C384   1.487       .  S
C7            N8   1.354       .  A
C7           N12   1.358       .  A
C7          C320   1.488       .  S
N8            C9   1.356       .  A
C9           N10   1.359       .  A
C9          C352   1.475       .  S
N10          C11   1.362       .  A
C11          N12   1.359       .  A
C11         C339   1.491       .  S
C13          N14   1.357       .  A
C13          N18   1.351       .  A
C13         C275   1.478       .  S
N14          C15   1.359       .  A
C15          N16   1.362       .  A
C15         C288   1.477       .  S
N16          C17   1.361       .  A
C17          N18   1.352       .  A
C17         C304   1.481       .  S
C19         C355   1.485       .  S
C19          C20   1.416       .  A
C19          C24   1.405       .  A
C20         C387   1.491       .  S
C20          C21   1.404       .  A
C21          C22   1.405       .  A
C21          H26   1.084       .  S
C22         C291   1.485       .  S
C22          C23   1.415       .  A
C23         C256   1.489       .  S
C23          C24   1.403       .  A
C24          H25   1.084       .  S
C27          N28   1.358       .  A
C27          N32   1.364       .  A
C27         C227   1.477       .  S
N28          C29   1.357       .  A
C29          N30   1.355       .  A
C29         C243   1.478       .  S
N30          C31   1.359       .  A
C31          N32   1.363       .  A
C31         C259   1.501       .  S
C33          N34   1.360       .  A
C33          N38   1.362       .  A
C33         C179   1.481       .  S
N34          C35   1.359       .  A
C35          N36   1.356       .  A
C35         C208   1.485       .  S
N36          C37   1.358       .  A
C37          N38   1.361       .  A
C37         C192   1.493       .  S
C39          N40   1.360       .  A
C39          N44   1.359       .  A
C39         C128   1.475       .  S
N40          C41   1.360       .  A
C41          N42   1.358       .  A
C41         C160   1.488       .  S
N42          C43   1.356       .  A
C43          N44   1.357       .  A
C43         C144   1.476       .  S
C45         C403   1.488       .  S
C45          C50   1.403       .  A
C45         C874   1.413       .  A
C46         C211   1.487       .  S
C46          C47   1.402       .  A
C46         C873   1.413   1_455  A
C47          C48   1.405       .  A
C47          H52   1.084       .  S
C48         C240   1.483       .  S
C48         C877   1.415   1_455  A
C49         C163   1.483       .  S
C49          C50   1.404       .  A
C49         C876   1.416       .  A
C50          H51   1.084       .  S
C53         C147   1.482       .  S
C53          C54   1.414   1_545  A
C53          C58   1.400       .  A
C54         C336   1.478       .  S
C54          C55   1.402       .  A
C55          C56   1.401   1_565  A
C55          H60   1.085       .  S
C56         C195   1.481   1_545  S
C56          C57   1.409       .  A
C57         C307   1.473       .  S
C57          C58   1.398       .  A
C58          H59   1.085       .  S
Zr61         O62   2.441       .  S
Zr61         O64   2.435       .  S
Zr61         O67   2.429   1_545  S
Zr61        O891   2.436   1_445  S
Zr61         O71   2.410       .  S
Zr61         O72   2.398       .  S
Zr61        O897   2.382   1_455  S
Zr61        O898   2.381   1_445  S
O62         H118   0.990       .  S
O62         H126   0.990       .  S
O63        Zr889   2.443   1_565  S
O63          C83   1.284       .  A
O64          C85   1.283       .  A
O65        Zr903   2.445   1_455  S
O65          C84   1.287       .  A
O66        Zr902   2.441   1_455  S
O66          C85   1.286       .  A
O67          C84   1.283       .  A
O68         Zr76   2.416       .  S
O68          C83   1.280       .  A
O69         Zr74   2.403       .  S
O69         Zr76   2.381   1_545  S
O69        Zr889   2.381       .  S
O70         Zr75   2.400       .  S
O70         Zr76   2.380       .  S
O70        Zr889   2.384   1_565  S
O70         H105   0.965       .  S
O71         Zr91   2.394       .  S
O71        Zr902   2.404   1_455  S
O71         H108   0.965       .  S
O72         Zr91   2.393       .  S
O72        Zr903   2.390   1_445  S
Zr73         O98   2.440   1_545  S
Zr73        O100   2.434   1_545  S
Zr73         O88   2.447       .  S
Zr73        O920   2.432       .  S
Zr73        O493   2.399   1_545  S
Zr73        O494   2.407       .  S
Zr73       O1323   2.378       .  S
Zr73       O1324   2.387       .  S
Zr74         O86   2.435       .  S
Zr74        O921   2.436       .  S
Zr74        O894   2.437       .  S
Zr74        O501   2.443   1_554  S
Zr74         O80   2.404       .  S
Zr74        O899   2.402       .  S
Zr74        O909   2.391       .  S
Zr75         O99   2.438       .  S
Zr75        O905   2.435       .  S
Zr75        O893   2.431       .  S
Zr75        O515   2.435   1_554  S
Zr75         O79   2.392       .  S
Zr75        O900   2.387   1_565  S
Zr75        O910   2.398   1_565  S
Zr76        O102   2.435       .  S
Zr76        O103   2.436       .  S
Zr76         O78   2.437   1_565  S
Zr76         O79   2.394       .  S
Zr76         O80   2.386   1_565  S
O77        Zr903   2.436   1_455  S
O77         H114   0.990       .  S
O78         H109   0.990   1_545  S
O78         H123   0.990       .  S
O79        Zr487   2.400   1_564  S
O80        Zr487   2.407   1_554  S
O80         H106   0.964       .  S
O81         Zr91   2.377       .  S
O81       Zr1315   2.379   1_454  S
O81        Zr902   2.396   1_455  S
O82         Zr91   2.381       .  S
O82       Zr1315   2.381   1_454  S
O82        Zr903   2.400   1_445  S
O82         H521   0.967   1_544  S
C83         C323   1.478       .  S
C84         C176   1.481       .  S
C85         C224   1.484       .  S
O86         H122   0.990       .  S
O87        Zr488   2.429       .  S
O87          C89   1.284       .  A
O88          C89   1.285       .  A
C89         C131   1.480       .  S
O90         Zr91   2.441       .  S
O90         H119   0.990       .  S
Zr91         O94   2.437       .  S
Zr91         O95   2.439       .  S
Zr91        O510   2.426   1_554  S
O92        Zr901   2.427   1_455  S
O92          C97   1.282       .  A
O93        Zr902   2.437   1_455  S
O93         H110   0.990       .  S
O93         H125   0.990       .  S
O94         H111   0.990       .  S
O95         H115   0.990       .  S
O95         H538   0.990       .  S
O96        Zr505   2.418       .  S
O96          C97   1.281       .  A
C97         C272   1.472       .  S
O98         H117   0.990       .  S
O98         H121   0.990   1_565  S
O99         H113   0.990       .  S
O99         H120   0.990       .  S
O100        C104   1.284       .  A
O101       Zr489   2.435       .  S
O101        C104   1.285       .  A
O102        H112   0.990       .  S
O103        H116   0.990   1_554  S
C104        C368   1.477       .  S
H107        O496   0.967   1_565  S
H124        O509   0.990       .  S
C127        C128   1.403       .  A
C127        C132   1.407       .  A
C127        H134   1.084       .  S
C128        C129   1.411       .  A
C129        C130   1.403       .  A
C129        C136   1.507       .  S
C130        C131   1.404       .  A
C130        H135   1.084       .  S
C131        C132   1.415       .  A
C132        C961   1.507       .  S
C133        C960   1.507   1_455  S
C133        H137   1.111       .  S
C133        H138   1.109   1_455  S
C133        H139   1.110       .  S
C136        H140   1.110       .  S
C136        H141   1.110       .  S
C136        H142   1.111       .  S
C143        C144   1.402       .  A
C143        C148   1.405       .  A
C143        H150   1.084       .  S
C144        C145   1.414       .  A
C145        C146   1.401       .  A
C145        C152   1.507       .  S
C146        C147   1.401       .  A
C146        H151   1.083       .  S
C147        C148   1.415       .  A
C148        C149   1.508       .  S
C149        H153   1.111       .  S
C149        H154   1.105       .  S
C149        H155   1.109       .  S
C152        H156   1.110       .  S
C152        H157   1.108       .  S
C152        H158   1.111       .  S
C159        C160   1.407       .  A
C159        C164   1.403       .  A
C159        H166   1.083       .  S
C160        C161   1.418       .  A
C161        C162   1.405       .  A
C161        C168   1.507       .  S
C162        C163   1.401       .  A
C162        H995   1.084       .  S
C163        C164   1.410       .  A
C164        C165   1.505       .  S
C165        H169   1.111       .  S
C165        H170   1.104       .  S
C165        H171   1.110       .  S
H167        C990   1.084       .  S
C168        H173   1.111       .  S
C168       H1000   1.109       .  S
C168       H1002   1.111       .  S
H172        C996   1.109       .  S
H174        C996   1.111       .  S
C175        C176   1.405       .  A
C175        C180   1.407       .  A
C175        H182   1.084   1_455  S
C176        C177   1.414       .  A
C177        C178   1.406       .  A
C177        C184   1.507       .  S
C178        C179   1.403       .  A
C178        H183   1.084       .  S
C179        C180   1.414       .  A
C180        C181   1.507       .  S
C181        H185   1.111   1_455  S
C181        H186   1.110       .  S
C181        H187   1.109   1_455  S
C184        H188   1.111       .  S
C184        H189   1.110       .  S
C184        H190   1.111       .  S
C191        C192   1.408       .  A
C191        C196   1.402       .  A
C191        H198   1.082       .  S
C192        C193   1.420       .  A
C193        C194   1.408       .  A
C193        C200   1.507       .  S
C194        C195   1.401       .  A
C194        H199   1.083   1_565  S
C195        C196   1.408       .  A
C196        C197   1.507       .  S
C197        H201   1.111       .  S
C197        H202   1.108       .  S
C197        H203   1.110       .  S
C200        H204   1.110       .  S
C200        H205   1.110       .  S
C200        H206   1.111   1_565  S
C207        C208   1.406       .  A
C207        C212   1.405       .  A
C207        H214   1.084       .  S
C208        C209   1.417       .  A
C209        C210   1.402       .  A
C209        C216   1.507       .  S
C210        C211   1.401       .  A
C210        H215   1.083       .  S
C211        C212   1.412       .  A
C212        C213   1.507       .  S
C213        H217   1.111       .  S
C213        H219   1.109       .  S
C213       H1046   1.110   1_455  S
C216        H220   1.110       .  S
C216        H221   1.107       .  S
C216        H222   1.111       .  S
H218       C1041   1.110       .  S
C223        C224   1.405       .  A
C223        C228   1.404       .  A
C223        H230   1.084       .  S
C224        C225   1.417       .  A
C225        C226   1.407       .  A
C225        C232   1.508   1_455  S
C226        C227   1.403       .  A
C226        H231   1.084       .  S
C227        C228   1.410       .  A
C228        C229   1.505       .  S
C229        H233   1.111       .  S
C229        H234   1.107       .  S
C229        H235   1.110       .  S
C232        H236   1.109       .  S
C232        H238   1.111       .  S
C232       H1065   1.110       .  S
H237       C1060   1.110       .  S
C239        C240   1.402       .  A
C239        C244   1.401       .  A
C239        H246   1.083       .  S
C240        C241   1.416       .  A
C241        C242   1.403       .  A
C241       C1076   1.508       .  S
C242        C243   1.403       .  A
C242        H247   1.085       .  S
C243        C244   1.415       .  A
C244        C245   1.507       .  S
C245        H249   1.111       .  S
C245        H250   1.107       .  S
C245        H251   1.110       .  S
C248       C1069   1.509       .  S
C248        H252   1.110       .  S
C248        H253   1.107       .  S
C248        H254   1.110       .  S
C255        C256   1.403       .  A
C255        C260   1.411       .  A
C255        H262   1.083       .  S
C256        C257   1.409       .  A
C257        C258   1.401       .  A
C257        C264   1.506       .  S
C258        C259   1.409       .  A
C258        H263   1.081       .  S
C259        C260   1.422       .  A
C260        C261   1.505       .  S
C261        H265   1.111       .  S
C261        H266   1.108       .  S
C261        H267   1.110       .  S
C264        H268   1.110       .  S
C264        H269   1.104       .  S
C264        H270   1.111       .  S
C271        C272   1.400       .  A
C271        C276   1.402       .  A
C271        H278   1.084       .  S
C272        C273   1.413       .  A
C273        C274   1.401       .  A
C273        C280   1.508       .  S
C274        C275   1.404       .  A
C274        H279   1.084       .  S
C275        C276   1.418       .  A
C276        C277   1.509       .  S
C277        H281   1.111       .  S
C277        H282   1.107       .  S
C277        H283   1.110       .  S
C280        H284   1.108       .  S
C280        H285   1.111       .  S
C280        H286   1.111       .  S
C287        C288   1.403       .  A
C287        C292   1.402       .  A
C287        H294   1.084       .  S
C288        C289   1.412       .  A
C289        C290   1.405       .  A
C289        C296   1.506       .  S
C290        C291   1.404       .  A
C290        H295   1.083       .  S
C291        C292   1.415       .  A
C292        C293   1.509       .  S
C293        H297   1.111       .  S
C293        H298   1.105       .  S
C293        H299   1.109       .  S
C296        H300   1.110       .  S
C296        H301   1.110       .  S
C296        H302   1.111       .  S
C303        C304   1.404       .  A
C303        C308   1.403       .  A
C303        H310   1.084       .  S
C304        C305   1.421       .  A
C305        C306   1.399       .  A
C305        C312   1.510       .  S
C306        C307   1.396       .  A
C306        H311   1.084       .  S
C307        C308   1.412       .  A
C308        C309   1.507       .  S
C309        H313   1.110       .  S
C309        H314   1.108       .  S
C309        H315   1.110       .  S
C312        H316   1.108       .  S
C312        H317   1.110       .  S
C312        H318   1.111       .  S
C319        C320   1.405       .  A
C319        C324   1.401       .  A
C319        H326   1.081       .  S
C320        C321   1.420       .  A
C321        C322   1.407       .  A
C321        C328   1.508       .  S
C322        C323   1.402       .  A
C322        H327   1.084       .  S
C323        C324   1.412       .  A
C324        C325   1.507   1_565  S
C325        H329   1.111       .  S
C325        H330   1.108   1_545  S
C325        H331   1.110       .  S
C328        H332   1.109       .  S
C328        H333   1.110       .  S
C328        H334   1.111       .  S
C335        C336   1.396       .  A
C335        C340   1.401       .  A
C335        H342   1.084   1_565  S
C336        C337   1.409       .  A
C337        C338   1.405       .  A
C337        C344   1.504       .  S
C338        C339   1.409       .  A
C338        H343   1.084       .  S
C339        C340   1.423       .  A
C340        C341   1.507       .  S
C341        H345   1.111   1_565  S
C341        H346   1.110       .  S
C341        H347   1.109       .  S
C344        H348   1.110       .  S
C344        H349   1.105       .  S
C344        H350   1.111       .  S
C351        C352   1.402       .  A
C351        C356   1.401       .  A
C351        H358   1.084       .  S
C352        C353   1.411       .  A
C353        C354   1.405       .  A
C353        C360   1.506       .  S
C354        C355   1.405       .  A
C354        H359   1.084       .  S
C355        C356   1.416       .  A
C356        C357   1.511       .  S
C357        H361   1.111       .  S
C357        H362   1.108       .  S
C357        H363   1.108       .  S
C360        H364   1.110       .  S
C360        H365   1.110       .  S
C360        H366   1.111       .  S
C367        C368   1.401       .  A
C367        C372   1.408       .  A
C367       H1202   1.084       .  S
C368        C369   1.412       .  A
C369        C370   1.405       .  A
C369        C376   1.507       .  S
C370        C371   1.405       .  A
C370        H375   1.084       .  S
C371        C372   1.419       .  A
C372        C373   1.507       .  S
C373        H378   1.110       .  S
C373        H379   1.109       .  S
C373       H1205   1.111       .  S
H374       C1195   1.084   1_455  S
C376        H380   1.111       .  S
C376        H381   1.110       .  S
C376        H382   1.111       .  S
H377       C1201   1.111   1_455  S
C383        C384   1.405       .  A
C383        C388   1.403       .  A
C383        H390   1.083       .  S
C384        C385   1.416       .  A
C385        C386   1.409       .  A
C385        C392   1.506       .  S
C386        C387   1.405       .  A
C386        H391   1.084       .  S
C387        C388   1.412       .  A
C388        C389   1.503       .  S
C389        H393   1.111       .  S
C389        H394   1.104       .  S
C389        H395   1.110       .  S
C392        H396   1.110       .  S
C392        H397   1.110       .  S
C392        H398   1.111       .  S
C399        C400   1.405       .  A
C399        C404   1.407       .  A
C399        H406   1.084       .  S
C400        C401   1.417       .  A
C401        C402   1.402       .  A
C401        C408   1.508       .  S
C402        C403   1.401       .  A
C402        H407   1.083       .  S
C403        C404   1.414       .  A
C404        C405   1.507       .  S
C405        H409   1.111       .  S
C405        H410   1.110       .  S
C405        H411   1.109       .  S
C408        H412   1.111       .  S
C408        H413   1.108       .  S
C408       H1242   1.111       .  S
H414       C1236   1.111       .  S
C415        N416   1.362       .  A
C415        N420   1.364       .  A
C415        C785   1.479       .  S
N416        C417   1.358       .  A
C417        N418   1.354       .  A
C417        C814   1.478       .  S
N418        C419   1.356       .  A
C419        N420   1.360       .  A
C419        C798   1.494       .  S
C421        N422   1.358       .  A
C421        N426   1.359       .  A
C421        C734   1.495       .  S
N422        C423   1.358       .  A
C423        N424   1.363       .  A
C423        C766   1.487       .  S
N424        C425   1.363       .  A
C425        N426   1.359       .  A
C425        C753   1.490       .  S
C427        N428   1.359       .  A
C427        N432   1.356       .  A
C427        C689   1.485       .  S
N428        C429   1.359       .  A
C429        N430   1.364       .  A
C429        C702   1.483       .  S
N430        C431   1.364       .  A
C431        N432   1.356       .  A
C431        C718   1.495       .  S
C433        C769   1.494       .  S
C433        C434   1.417       .  A
C433        C438   1.405       .  A
C434        C801   1.485       .  S
C434        C435   1.405       .  A
C435        C436   1.404       .  A
C435        H440   1.084       .  S
C436        C705   1.492       .  S
C436        C437   1.415       .  A
C437        C670   1.485       .  S
C437        C438   1.406       .  A
C438        H439   1.084       .  S
C441        N442   1.359       .  A
C441        N446   1.362       .  A
C441        C641   1.474       .  S
N442        C443   1.357       .  A
C443        N444   1.355       .  A
C443        C657   1.483       .  S
N444        C445   1.358       .  A
C445        N446   1.360       .  A
C445        C673   1.487       .  S
C447        N448   1.361       .  A
C447        N452   1.365       .  A
C447        C593   1.502       .  S
N448        C449   1.359       .  A
C449        N450   1.353       .  A
C449        C622   1.481       .  S
N450        C451   1.354       .  A
C451        N452   1.358       .  A
C451        C606   1.492       .  S
C453        N454   1.360       .  A
C453        N458   1.359       .  A
C453        C542   1.483       .  S
N454        C455   1.360       .  A
C455        N456   1.360       .  A
C455        C574   1.494       .  S
N456        C457   1.355       .  A
C457        N458   1.356       .  A
C457        C558   1.478       .  S
C459        C817   1.496       .  S
C459       C1288   1.418       .  A
C459        C464   1.405       .  A
C460        C625   1.482       .  S
C460       C1287   1.415   1_455  A
C460        C461   1.401       .  A
C461        C462   1.400       .  A
C461        H466   1.084       .  S
C462        C654   1.482       .  S
C462       C1291   1.412   1_455  A
C463        C577   1.480       .  S
C463       C1290   1.412       .  A
C463        C464   1.404       .  A
C464        H465   1.083       .  S
C467        C561   1.488       .  S
C467        C468   1.418   1_545  A
C467        C472   1.408       .  A
C468        C750   1.487       .  S
C468        C469   1.404       .  A
C469        C470   1.402   1_565  A
C469        H474   1.085       .  S
C470        C609   1.482   1_545  S
C470        C471   1.410       .  A
C471        C721   1.485       .  S
C471        C472   1.404       .  A
C472        H473   1.084       .  S
Zr475       O476   2.442       .  S
Zr475      O1305   2.438   1_445  S
Zr475       O478   2.435       .  S
Zr475       O481   2.417   1_545  S
Zr475      O1311   2.379   1_455  S
Zr475      O1312   2.384   1_445  S
Zr475       O485   2.405       .  S
Zr475       O486   2.405       .  S
O476        H532   0.990       .  S
O476        H540   0.991       .  S
O477      Zr1303   2.438   1_565  S
O477        C497   1.282       .  A
O478        C499   1.282       .  A
O479      Zr1317   2.441   1_455  S
O479        C498   1.286       .  A
O480      Zr1316   2.422   1_455  S
O480        C499   1.282       .  A
O481        C498   1.281       .  A
O482       Zr490   2.412       .  S
O482        C497   1.278       .  A
O483      Zr1303   2.381       .  S
O483       Zr488   2.399       .  S
O483       Zr490   2.382   1_545  S
O484      Zr1303   2.383   1_565  S
O484       Zr489   2.400       .  S
O484       Zr490   2.377       .  S
O484        H519   0.967       .  S
O485      Zr1316   2.400   1_455  S
O485       Zr505   2.394       .  S
O485        H522   0.966       .  S
O486      Zr1317   2.390   1_445  S
O486       Zr505   2.390       .  S
Zr487       O512   2.441   1_545  S
Zr487      O1334   2.438       .  S
Zr487       O514   2.430   1_545  S
Zr487       O502   2.428       .  S
Zr487       O909   2.377   1_556  S
Zr487       O910   2.381   1_556  S
Zr488      O1335   2.438       .  S
Zr488       O500   2.433       .  S
Zr488      O1308   2.432       .  S
Zr488      O1313   2.403       .  S
Zr488       O494   2.404       .  S
Zr488      O1323   2.390       .  S
Zr489      O1319   2.435       .  S
Zr489       O513   2.438       .  S
Zr489      O1307   2.438       .  S
Zr489      O1314   2.388   1_565  S
Zr489       O493   2.392       .  S
Zr489      O1324   2.397   1_565  S
Zr490       O516   2.436       .  S
Zr490       O517   2.436       .  S
Zr490       O492   2.437       .  S
Zr490       O493   2.388       .  S
Zr490       O494   2.391   1_565  S
O491      Zr1317   2.435   1_455  S
O491        H528   0.990       .  S
O492        H523   0.991       .  S
O492        H537   0.989   1_565  S
O494        H520   0.965       .  S
O495       Zr901   2.377   1_455  S
O495      Zr1316   2.388   1_455  S
O495       Zr505   2.379       .  S
O496       Zr901   2.386   1_455  S
O496      Zr1317   2.394   1_445  S
O496       Zr505   2.379       .  S
C497        C737   1.472       .  S
C498        C590   1.474       .  S
C499        C638   1.474       .  S
O500        H536   0.989       .  S
O501        C503   1.285       .  A
O502        C503   1.284       .  A
C503        C545   1.495       .  S
O504       Zr505   2.441       .  S
O504        H533   0.990       .  S
Zr505       O508   2.437       .  S
Zr505       O509   2.443       .  S
O506      Zr1315   2.427   1_455  S
O506        C511   1.282       .  A
O507      Zr1316   2.437   1_455  S
O507        H524   0.990       .  S
O507        H539   0.990       .  S
O508        H525   0.990       .  S
O509        H529   0.990       .  S
O510        C511   1.282       .  A
C511        C686   1.477       .  S
O512        H531   0.990       .  S
O512        H535   0.990   1_565  S
O513        H527   0.990       .  S
O513        H534   0.990       .  S
O514        C518   1.284       .  A
O515        C518   1.285       .  A
O516        H526   0.990       .  S
O517        H530   0.990       .  S
C518        C782   1.479       .  S
C541        C542   1.406       .  A
C541        C546   1.409       .  A
C541        H548   1.084       .  S
C542        C543   1.413       .  A
C543        C544   1.400       .  A
C543        C550   1.510       .  S
C544        C545   1.409       .  A
C544        H549   1.083       .  S
C545        C546   1.420       .  A
C546       C1375   1.508       .  S
C547       C1374   1.507       .  S
C547        H551   1.111       .  S
C547        H552   1.110   1_655  S
C547        H553   1.110       .  S
C550        H554   1.110       .  S
C550        H555   1.109       .  S
C550        H556   1.111       .  S
C557        C558   1.402       .  A
C557        C562   1.406       .  A
C557        H564   1.084       .  S
C558        C559   1.413       .  A
C559        C560   1.405       .  A
C559        C566   1.507       .  S
C560        C561   1.403       .  A
C560        H565   1.083       .  S
C561        C562   1.417       .  A
C562        C563   1.509       .  S
C563        H567   1.111       .  S
C563        H568   1.107       .  S
C563        H569   1.108       .  S
C566        H570   1.110       .  S
C566        H571   1.109       .  S
C566        H572   1.111       .  S
C573        C574   1.409       .  A
C573        C578   1.400       .  A
C573        H580   1.083       .  S
C574        C575   1.424       .  A
C575        C576   1.406       .  A
C575        C582   1.508       .  S
C576        C577   1.400       .  A
C576       H1409   1.084       .  S
C577        C578   1.406       .  A
C578        C579   1.505       .  S
C579        H583   1.111       .  S
C579        H584   1.105       .  S
C579        H585   1.110       .  S
H581       C1404   1.084   1_455  S
C582       H1414   1.110       .  S
C582        H587   1.110       .  S
C582       H1416   1.111       .  S
H586       C1410   1.110       .  S
H588       C1410   1.111   1_455  S
C589        C590   1.399       .  A
C589        C594   1.409       .  A
C589        H596   1.084   1_455  S
C590        C591   1.410       .  A
C591        C592   1.399       .  A
C591        C598   1.509   1_565  S
C592        C593   1.409       .  A
C592        H597   1.080       .  S
C593        C594   1.427       .  A
C594        C595   1.508       .  S
C595        H599   1.111   1_455  S
C595        H600   1.110   1_455  S
C595        H601   1.110       .  S
C598        H602   1.106       .  S
C598        H603   1.110       .  S
C598        H604   1.111       .  S
C605        C606   1.408       .  A
C605        C610   1.399       .  A
C605        H612   1.080       .  S
C606        C607   1.420       .  A
C607        C608   1.408       .  A
C607        C614   1.506       .  S
C608        C609   1.402       .  A
C608        H613   1.083   1_565  S
C609        C610   1.407       .  A
C610        C611   1.508       .  S
C611        H615   1.111       .  S
C611        H616   1.109       .  S
C611        H617   1.110       .  S
C614        H618   1.109       .  S
C614        H619   1.110       .  S
C614        H620   1.111   1_565  S
C621        C622   1.405       .  A
C621        C626   1.405       .  A
C621        H628   1.084       .  S
C622        C623   1.418       .  A
C623        C624   1.398       .  A
C623        C630   1.507       .  S
C624        C625   1.398       .  A
C624        H629   1.084       .  S
C625        C626   1.413       .  A
C626        C627   1.507       .  S
C627        H631   1.111       .  S
C627       H1460   1.110   1_455  S
C627        H633   1.109       .  S
C630        H634   1.111       .  S
C630        H635   1.106       .  S
C630        H636   1.111       .  S
H632       C1455   1.110       .  S
C637        C638   1.403       .  A
C637        C642   1.401       .  A
C637        H644   1.085       .  S
C638        C639   1.414       .  A
C639        C640   1.405       .  A
C639        C646   1.508   1_455  S
C640        C641   1.404       .  A
C640        H645   1.084       .  S
C641        C642   1.411       .  A
C642        C643   1.505       .  S
C643        H647   1.111       .  S
C643        H648   1.106       .  S
C643        H649   1.110       .  S
C646        H650   1.109       .  S
C646       H1479   1.110       .  S
C646        H652   1.111       .  S
H651       C1474   1.110       .  S
C653        C654   1.400       .  A
C653        C658   1.402       .  A
C653        H660   1.084       .  S
C654        C655   1.415       .  A
C655        C656   1.403       .  A
C655       C1490   1.508       .  S
C656        C657   1.405       .  A
C656        H661   1.084       .  S
C657        C658   1.418       .  A
C658        C659   1.507       .  S
C659        H663   1.111       .  S
C659        H664   1.108       .  S
C659        H665   1.110       .  S
C662       C1483   1.508       .  S
C662        H666   1.110       .  S
C662        H667   1.107       .  S
C662        H668   1.111       .  S
C669        C670   1.404       .  A
C669        C674   1.408       .  A
C669        H676   1.084       .  S
C670        C671   1.409       .  A
C671        C672   1.400       .  A
C671        C678   1.503       .  S
C672        C673   1.405       .  A
C672        H677   1.083       .  S
C673        C674   1.417       .  A
C674        C675   1.504       .  S
C675        H679   1.111       .  S
C675        H680   1.110       .  S
C675        H681   1.110       .  S
C678        H682   1.110       .  S
C678        H683   1.105       .  S
C678        H684   1.111       .  S
C685        C686   1.401       .  A
C685        C690   1.404       .  A
C685        H692   1.084       .  S
C686        C687   1.413       .  A
C687        C688   1.404       .  A
C687        C694   1.507       .  S
C688        C689   1.405       .  A
C688        H693   1.084       .  S
C689        C690   1.418       .  A
C690        C691   1.508       .  S
C691        H695   1.111       .  S
C691        H696   1.105       .  S
C691        H697   1.110       .  S
C694        H698   1.107       .  S
C694        H699   1.111       .  S
C694        H700   1.111       .  S
C701        C702   1.404       .  A
C701        C706   1.406       .  A
C701        H708   1.084       .  S
C702        C703   1.413       .  A
C703        C704   1.407       .  A
C703        C710   1.506       .  S
C704        C705   1.405       .  A
C704        H709   1.083       .  S
C705        C706   1.417       .  A
C706        C707   1.511       .  S
C707        H711   1.111       .  S
C707        H712   1.108       .  S
C707        H713   1.108       .  S
C710        H714   1.111       .  S
C710        H715   1.110       .  S
C710        H716   1.111       .  S
C717        C718   1.408       .  A
C717        C722   1.408       .  A
C717        H724   1.084       .  S
C718        C719   1.424       .  A
C719        C720   1.403       .  A
C719        C726   1.509       .  S
C720        C721   1.397       .  A
C720        H725   1.084       .  S
C721        C722   1.414       .  A
C722        C723   1.506       .  S
C723        H727   1.111       .  S
C723        H728   1.109       .  S
C723        H729   1.110       .  S
C726        H730   1.106       .  S
C726        H731   1.110       .  S
C726        H732   1.111       .  S
C733        C734   1.409       .  A
C733        C738   1.402       .  A
C733        H740   1.079       .  S
C734        C735   1.423       .  A
C735        C736   1.406       .  A
C735        C742   1.508       .  S
C736        C737   1.399       .  A
C736        H741   1.084       .  S
C737        C738   1.409       .  A
C738        C739   1.508   1_565  S
C739        H743   1.111       .  S
C739        H744   1.109       .  S
C739        H745   1.110       .  S
C742        H746   1.109       .  S
C742        H747   1.110       .  S
C742        H748   1.111       .  S
C749        C750   1.398       .  A
C749        C754   1.402       .  A
C749        H756   1.085   1_565  S
C750        C751   1.413       .  A
C751        C752   1.410       .  A
C751        C758   1.503       .  S
C752        C753   1.406       .  A
C752        H757   1.084       .  S
C753        C754   1.419       .  A
C754        C755   1.506       .  S
C755        H759   1.111       .  S
C755        H760   1.110       .  S
C755        H761   1.105       .  S
C758        H762   1.110       .  S
C758        H763   1.106       .  S
C758        H764   1.111       .  S
C765        C766   1.405       .  A
C765        C770   1.407       .  A
C765        H772   1.084       .  S
C766        C767   1.413       .  A
C767        C768   1.408       .  A
C767        C774   1.506       .  S
C768        C769   1.405       .  A
C768        H773   1.083       .  S
C769        C770   1.417       .  A
C770        C771   1.509       .  S
C771        H775   1.111       .  S
C771        H776   1.108       .  S
C771        H777   1.105       .  S
C774        H778   1.109       .  S
C774        H779   1.111       .  S
C774        H780   1.111       .  S
C781        C782   1.404       .  A
C781        C786   1.406       .  A
C781       H1616   1.084       .  S
C782        C783   1.414       .  A
C783        C784   1.405       .  A
C783        C790   1.507       .  S
C784        C785   1.402       .  A
C784        H789   1.084       .  S
C785        C786   1.414       .  A
C786        C787   1.507       .  S
C787       H1619   1.111       .  S
C787        H792   1.110       .  S
C787        H793   1.109       .  S
H788       C1609   1.084   1_455  S
C790        H794   1.110       .  S
C790        H795   1.110       .  S
C790        H796   1.111       .  S
H791       C1615   1.111   1_455  S
C797        C798   1.408       .  A
C797        C802   1.400       .  A
C797        H804   1.082       .  S
C798        C799   1.420       .  A
C799        C800   1.410       .  A
C799        C806   1.507       .  S
C800        C801   1.404       .  A
C800        H805   1.084       .  S
C801        C802   1.408       .  A
C802        C803   1.506       .  S
C803        H807   1.111       .  S
C803        H808   1.104       .  S
C803        H809   1.110       .  S
C806        H810   1.110       .  S
C806        H811   1.111       .  S
C806        H812   1.111       .  S
C813        C814   1.403       .  A
C813        C818   1.409       .  A
C813        H820   1.084       .  S
C814        C815   1.412       .  A
C815        C816   1.400       .  A
C815        C822   1.508       .  S
C816        C817   1.403       .  A
C816        H821   1.082       .  S
C817        C818   1.419       .  A
C818        C819   1.507       .  S
C819        H823   1.111       .  S
C819        H824   1.110       .  S
C819        H825   1.108       .  S
C822        H826   1.111       .  S
C822        H827   1.106       .  S
C822       H1656   1.111       .  S
H828       C1650   1.111       .  S
C829        N830   1.363       .  A
C829        N834   1.365       .  A
C829       C1199   1.487       .  S
N830        C831   1.360       .  A
C831        N832   1.352       .  A
C831       C1228   1.481       .  S
N832        C833   1.353       .  A
C833        N834   1.360       .  A
C833       C1212   1.484       .  S
C835        N836   1.356       .  A
C835        N840   1.360       .  A
C835       C1148   1.492       .  S
N836        C837   1.357       .  A
C837        N838   1.358       .  A
C837       C1180   1.478       .  S
N838        C839   1.360       .  A
C839        N840   1.359       .  A
C839       C1167   1.489       .  S
C841        N842   1.357       .  A
C841        N846   1.353       .  A
C841       C1103   1.480       .  S
N842        C843   1.358       .  A
C843        N844   1.361       .  A
C843       C1116   1.476       .  S
N844        C845   1.362       .  A
C845        N846   1.355       .  A
C845       C1132   1.485       .  S
C847       C1183   1.485       .  S
C847        C848   1.414       .  A
C847        C852   1.404       .  A
C848       C1215   1.488       .  S
C848        C849   1.403       .  A
C849        C850   1.405       .  A
C849        H854   1.084       .  S
C850       C1119   1.486       .  S
C850        C851   1.415       .  A
C851       C1084   1.486       .  S
C851        C852   1.403       .  A
C852        H853   1.084       .  S
C855        N856   1.360       .  A
C855        N860   1.363       .  A
C855       C1055   1.480       .  S
N856        C857   1.359       .  A
C857        N858   1.356       .  A
C857       C1071   1.484       .  S
N858        C859   1.359       .  A
C859        N860   1.361       .  A
C859       C1087   1.489       .  S
C861        N862   1.360       .  A
C861        N866   1.365       .  A
C861       C1007   1.501       .  S
N862        C863   1.358       .  A
C863        N864   1.353       .  A
C863       C1036   1.484       .  S
N864        C865   1.356       .  A
C865        N866   1.360       .  A
C865       C1020   1.491       .  S
C867        N868   1.358       .  A
C867        N872   1.359       .  A
C867        C956   1.473       .  S
N868        C869   1.359       .  A
C869        N870   1.358       .  A
C869        C988   1.487       .  S
N870        C871   1.356       .  A
C871        N872   1.357       .  A
C871        C972   1.475       .  S
C873       C1231   1.480       .  S
C873        C878   1.400       .  A
C874       C1039   1.482       .  S
C874        C875   1.401       .  A
C875        C876   1.403       .  A
C875        H880   1.084       .  S
C876       C1068   1.487       .  S
C877        C991   1.481       .  S
C877        C878   1.399       .  A
C878        H879   1.084       .  S
C881        C975   1.485       .  S
C881        C882   1.416   1_545  A
C881        C886   1.402       .  A
C882       C1164   1.480       .  S
C882        C883   1.403       .  A
C883        C884   1.402   1_565  A
C883        H888   1.085       .  S
C884       C1023   1.482   1_545  S
C884        C885   1.408       .  A
C885       C1135   1.476       .  S
C885        C886   1.400       .  A
C886        H887   1.084       .  S
Zr889       O890   2.441       .  S
Zr889       O892   2.440       .  S
Zr889       O895   2.430   1_545  S
Zr889       O899   2.412       .  S
Zr889       O900   2.400       .  S
O890        H946   0.990       .  S
O890        H954   0.990       .  S
O891        C911   1.283       .  A
O892        C913   1.283       .  A
O893        C912   1.283       .  A
O894        C913   1.285       .  A
O895        C912   1.283       .  A
O896       Zr904   2.413       .  S
O896        C911   1.280       .  A
O897       Zr902   2.400       .  S
O897       Zr904   2.380   1_545  S
O898       Zr903   2.396       .  S
O898       Zr904   2.381       .  S
O898        H933   0.965       .  S
O899       Zr919   2.394       .  S
O899        H936   0.965       .  S
O900       Zr919   2.391       .  S
Zr901       O926   2.440   1_545  S
Zr901       O928   2.425   1_545  S
Zr901       O916   2.439       .  S
Zr901      O1321   2.401   1_545  S
Zr901      O1322   2.404       .  S
Zr902       O914   2.435       .  S
Zr902      O1329   2.446   1_554  S
Zr902       O908   2.404       .  S
Zr903       O927   2.440       .  S
Zr903      O1343   2.444   1_554  S
Zr903       O907   2.392       .  S
Zr904       O930   2.436       .  S
Zr904       O931   2.436       .  S
Zr904       O906   2.436   1_565  S
Zr904       O907   2.395       .  S
Zr904       O908   2.383   1_565  S
O905        H942   0.990       .  S
O906        H937   0.990   1_545  S
O906        H951   0.990       .  S
O907      Zr1315   2.400   1_564  S
O908      Zr1315   2.407   1_554  S
O908        H934   0.964       .  S
O909       Zr919   2.375       .  S
O910       Zr919   2.381       .  S
O910       H1349   0.966   1_544  S
C911       C1151   1.472       .  S
C912       C1004   1.473       .  S
C913       C1052   1.480       .  S
O914        H950   0.990       .  S
O915      Zr1316   2.425       .  S
O915        C917   1.284       .  A
O916        C917   1.284       .  A
C917        C959   1.477       .  S
O918       Zr919   2.441       .  S
O918        H947   0.990       .  S
Zr919       O922   2.436       .  S
Zr919       O923   2.439       .  S
Zr919      O1338   2.424   1_554  S
O920        C925   1.283       .  A
O921        H938   0.990       .  S
O921        H953   0.990       .  S
O922        H939   0.990       .  S
O923        H943   0.990   1_554  S
O923       H1366   0.990       .  S
O924      Zr1333   2.412       .  S
O924        C925   1.280       .  A
C925       C1100   1.473       .  S
O926        H945   0.990       .  S
O926        H949   0.990   1_565  S
O927        H941   0.990       .  S
O927        H948   0.990       .  S
O928        C932   1.283       .  A
O929      Zr1317   2.444       .  S
O929        C932   1.287       .  A
O930        H940   0.989       .  S
O931        H944   0.990   1_554  S
C932       C1196   1.477       .  S
H935       O1324   0.967   1_565  S
H952       O1337   0.990       .  S
C955        C956   1.403       .  A
C955        C960   1.407       .  A
C955        H962   1.084       .  S
C956        C957   1.411       .  A
C957        C958   1.402       .  A
C957        C964   1.507       .  S
C958        C959   1.404       .  A
C958        H963   1.084       .  S
C959        C960   1.414       .  A
C961        H965   1.111       .  S
C961        H966   1.109       .  S
C961        H967   1.110       .  S
C964        H968   1.110       .  S
C964        H969   1.110       .  S
C964        H970   1.111       .  S
C971        C972   1.402       .  A
C971        C976   1.406       .  A
C971        H978   1.084       .  S
C972        C973   1.412       .  A
C973        C974   1.401       .  A
C973        C980   1.507       .  S
C974        C975   1.402       .  A
C974        H979   1.082       .  S
C975        C976   1.417       .  A
C976        C977   1.509       .  S
C977        H981   1.111       .  S
C977        H982   1.106       .  S
C977        H983   1.108       .  S
C980        H984   1.110       .  S
C980        H985   1.109       .  S
C980        H986   1.111       .  S
C987        C988   1.408       .  A
C987        C992   1.402       .  A
C987        H994   1.084       .  S
C988        C989   1.419       .  A
C989        C990   1.404       .  A
C989        C996   1.508       .  S
C990        C991   1.401       .  A
C991        C992   1.409       .  A
C992        C993   1.505       .  S
C993        H997   1.111       .  S
C993        H998   1.104       .  S
C993        H999   1.110       .  S
C996       H1001   1.111       .  S
C1003      C1004   1.398       .  A
C1003      C1008   1.407       .  A
C1003      H1010   1.084       .  S
C1004      C1005   1.408       .  A
C1005      C1006   1.402       .  A
C1005      C1012   1.508   1_565  S
C1006      C1007   1.410       .  A
C1006      H1011   1.082       .  S
C1007      C1008   1.428       .  A
C1008      C1009   1.509       .  S
C1009      H1013   1.111       .  S
C1009      H1014   1.110       .  S
C1009      H1015   1.110       .  S
C1012      H1016   1.109       .  S
C1012      H1017   1.111   1_545  S
C1012      H1018   1.111       .  S
C1019      C1020   1.407       .  A
C1019      C1024   1.400       .  A
C1019      H1026   1.082       .  S
C1020      C1021   1.419       .  A
C1021      C1022   1.408       .  A
C1021      C1028   1.506       .  S
C1022      C1023   1.402       .  A
C1022      H1027   1.083   1_565  S
C1023      C1024   1.408       .  A
C1024      C1025   1.507       .  S
C1025      H1029   1.111       .  S
C1025      H1030   1.107       .  S
C1025      H1031   1.110       .  S
C1028      H1032   1.109       .  S
C1028      H1033   1.110       .  S
C1028      H1034   1.111   1_565  S
C1035      C1036   1.406       .  A
C1035      C1040   1.404       .  A
C1035      H1042   1.084       .  S
C1036      C1037   1.419       .  A
C1037      C1038   1.401       .  A
C1037      C1044   1.507       .  S
C1038      C1039   1.399       .  A
C1038      H1043   1.083       .  S
C1039      C1040   1.412       .  A
C1040      C1041   1.507       .  S
C1041      H1045   1.111       .  S
C1041      H1047   1.109       .  S
C1044      H1048   1.111       .  S
C1044      H1049   1.107       .  S
C1044      H1050   1.111       .  S
C1051      C1052   1.403       .  A
C1051      C1056   1.403       .  A
C1051      H1058   1.084       .  S
C1052      C1053   1.415       .  A
C1053      C1054   1.408       .  A
C1053      C1060   1.507       .  S
C1054      C1055   1.405       .  A
C1054      H1059   1.084       .  S
C1055      C1056   1.412       .  A
C1056      C1057   1.505       .  S
C1057      H1061   1.111       .  S
C1057      H1062   1.105       .  S
C1057      H1063   1.110       .  S
C1060      H1064   1.109       .  S
C1060      H1066   1.111       .  S
C1067      C1068   1.402       .  A
C1067      C1072   1.404       .  A
C1067      H1074   1.084       .  S
C1068      C1069   1.417       .  A
C1069      C1070   1.404       .  A
C1070      C1071   1.403       .  A
C1070      H1075   1.085       .  S
C1071      C1072   1.417       .  A
C1072      C1073   1.507       .  S
C1073      H1077   1.111       .  S
C1073      H1078   1.109       .  S
C1073      H1079   1.110       .  S
C1076      H1080   1.110       .  S
C1076      H1081   1.107   1_455  S
C1076      H1082   1.111   1_455  S
C1083      C1084   1.403       .  A
C1083      C1088   1.408       .  A
C1083      H1090   1.084       .  S
C1084      C1085   1.410       .  A
C1085      C1086   1.402       .  A
C1085      C1092   1.503       .  S
C1086      C1087   1.405       .  A
C1086      H1091   1.083       .  S
C1087      C1088   1.417       .  A
C1088      C1089   1.503       .  S
C1089      H1093   1.111       .  S
C1089      H1094   1.110       .  S
C1089      H1095   1.109       .  S
C1092      H1096   1.110       .  S
C1092      H1097   1.106       .  S
C1092      H1098   1.111       .  S
C1099      C1100   1.401       .  A
C1099      C1104   1.403       .  A
C1099      H1106   1.084       .  S
C1100      C1101   1.413       .  A
C1101      C1102   1.400       .  A
C1101      C1108   1.508       .  S
C1102      C1103   1.404       .  A
C1102      H1107   1.084       .  S
C1103      C1104   1.418       .  A
C1104      C1105   1.509       .  S
C1105      H1109   1.111       .  S
C1105      H1110   1.107       .  S
C1105      H1111   1.110       .  S
C1108      H1112   1.107       .  S
C1108      H1113   1.111       .  S
C1108      H1114   1.111       .  S
C1115      C1116   1.402       .  A
C1115      C1120   1.403       .  A
C1115      H1122   1.084       .  S
C1116      C1117   1.412       .  A
C1117      C1118   1.405       .  A
C1117      C1124   1.506       .  S
C1118      C1119   1.404       .  A
C1118      H1123   1.083       .  S
C1119      C1120   1.417       .  A
C1120      C1121   1.511       .  S
C1121      H1125   1.111       .  S
C1121      H1126   1.108       .  S
C1121      H1127   1.108       .  S
C1124      H1128   1.110       .  S
C1124      H1129   1.110       .  S
C1124      H1130   1.111       .  S
C1131      C1132   1.406       .  A
C1131      C1136   1.404       .  A
C1131      H1138   1.084       .  S
C1132      C1133   1.422       .  A
C1133      C1134   1.400       .  A
C1133      C1140   1.509       .  S
C1134      C1135   1.396       .  A
C1134      H1139   1.083       .  S
C1135      C1136   1.412       .  A
C1136      C1137   1.507       .  S
C1137      H1141   1.110       .  S
C1137      H1142   1.108       .  S
C1137      H1143   1.110       .  S
C1140      H1144   1.107       .  S
C1140      H1145   1.110       .  S
C1140      H1146   1.111       .  S
C1147      C1148   1.408       .  A
C1147      C1152   1.401       .  A
C1147      H1154   1.080       .  S
C1148      C1149   1.422       .  A
C1149      C1150   1.406       .  A
C1149      C1156   1.508       .  S
C1150      C1151   1.400       .  A
C1150      H1155   1.084       .  S
C1151      C1152   1.409       .  A
C1152      C1153   1.508   1_565  S
C1153      H1157   1.111       .  S
C1153      H1158   1.108       .  S
C1153      H1159   1.111       .  S
C1156      H1160   1.109       .  S
C1156      H1161   1.110       .  S
C1156      H1162   1.111       .  S
C1163      C1164   1.397       .  A
C1163      C1168   1.400       .  A
C1163      H1170   1.085   1_565  S
C1164      C1165   1.409       .  A
C1165      C1166   1.406       .  A
C1165      C1172   1.504       .  S
C1166      C1167   1.408       .  A
C1166      H1171   1.084       .  S
C1167      C1168   1.421       .  A
C1168      C1169   1.506       .  S
C1169      H1173   1.111       .  S
C1169      H1174   1.110       .  S
C1169      H1175   1.108       .  S
C1172      H1176   1.110       .  S
C1172      H1177   1.105       .  S
C1172      H1178   1.111       .  S
C1179      C1180   1.403       .  A
C1179      C1184   1.403       .  A
C1179      H1186   1.084       .  S
C1180      C1181   1.413       .  A
C1181      C1182   1.405       .  A
C1181      C1188   1.507       .  S
C1182      C1183   1.404       .  A
C1182      H1187   1.084       .  S
C1183      C1184   1.415       .  A
C1184      C1185   1.510       .  S
C1185      H1189   1.111       .  S
C1185      H1190   1.108       .  S
C1185      H1191   1.107       .  S
C1188      H1192   1.110       .  S
C1188      H1193   1.110       .  S
C1188      H1194   1.111       .  S
C1195      C1196   1.402       .  A
C1195      C1200   1.409       .  A
C1196      C1197   1.411       .  A
C1197      C1198   1.404       .  A
C1197      C1204   1.508       .  S
C1198      C1199   1.405       .  A
C1198      H1203   1.084       .  S
C1199      C1200   1.419       .  A
C1200      C1201   1.508       .  S
C1201      H1206   1.110       .  S
C1201      H1207   1.109       .  S
C1204      H1208   1.111       .  S
C1204      H1209   1.110       .  S
C1204      H1210   1.111       .  S
C1211      C1212   1.405       .  A
C1211      C1216   1.402       .  A
C1211      H1218   1.083       .  S
C1212      C1213   1.414       .  A
C1213      C1214   1.409       .  A
C1213      C1220   1.506       .  S
C1214      C1215   1.405       .  A
C1214      H1219   1.084       .  S
C1215      C1216   1.411       .  A
C1216      C1217   1.504       .  S
C1217      H1221   1.111       .  S
C1217      H1222   1.104       .  S
C1217      H1223   1.110       .  S
C1220      H1224   1.110       .  S
C1220      H1225   1.111       .  S
C1220      H1226   1.111       .  S
C1227      C1228   1.405       .  A
C1227      C1232   1.405       .  A
C1227      H1234   1.084       .  S
C1228      C1229   1.419       .  A
C1229      C1230   1.398       .  A
C1229      C1236   1.508       .  S
C1230      C1231   1.398       .  A
C1230      H1235   1.084       .  S
C1231      C1232   1.412       .  A
C1232      C1233   1.508       .  S
C1233      H1237   1.111       .  S
C1233      H1238   1.109   1_655  S
C1233      H1239   1.109       .  S
C1236      H1240   1.110       .  S
C1236      H1241   1.108       .  S
C1243      N1244   1.363       .  A
C1243      N1248   1.366       .  A
C1243      C1613   1.488       .  S
N1244      C1245   1.360       .  A
C1245      N1246   1.354       .  A
C1245      C1642   1.482       .  S
N1246      C1247   1.355       .  A
C1247      N1248   1.361       .  A
C1247      C1626   1.495       .  S
C1249      N1250   1.357       .  A
C1249      N1254   1.359       .  A
C1249      C1562   1.491       .  S
N1250      C1251   1.358       .  A
C1251      N1252   1.363       .  A
C1251      C1594   1.484       .  S
N1252      C1253   1.363       .  A
C1253      N1254   1.358       .  A
C1253      C1581   1.491       .  S
C1255      N1256   1.358       .  A
C1255      N1260   1.354       .  A
C1255      C1517   1.480       .  S
N1256      C1257   1.359       .  A
C1257      N1258   1.362       .  A
C1257      C1530   1.480       .  S
N1258      C1259   1.363       .  A
C1259      N1260   1.355       .  A
C1259      C1546   1.491       .  S
C1261      C1597   1.494       .  S
C1261      C1262   1.418       .  A
C1261      C1266   1.407       .  A
C1262      C1629   1.487       .  S
C1262      C1263   1.404       .  A
C1263      C1264   1.404       .  A
C1263      H1268   1.084       .  S
C1264      C1533   1.489       .  S
C1264      C1265   1.415       .  A
C1265      C1498   1.490       .  S
C1265      C1266   1.405       .  A
C1266      H1267   1.084       .  S
C1269      N1270   1.358       .  A
C1269      N1274   1.364       .  A
C1269      C1469   1.477       .  S
N1270      C1271   1.358       .  A
C1271      N1272   1.356       .  A
C1271      C1485   1.486       .  S
N1272      C1273   1.360       .  A
C1273      N1274   1.362       .  A
C1273      C1501   1.492       .  S
C1275      N1276   1.361       .  A
C1275      N1280   1.364       .  A
C1275      C1421   1.501       .  S
N1276      C1277   1.359       .  A
C1277      N1278   1.353       .  A
C1277      C1450   1.484       .  S
N1278      C1279   1.355       .  A
C1279      N1280   1.357       .  A
C1279      C1434   1.494       .  S
C1281      N1282   1.360       .  A
C1281      N1286   1.359       .  A
C1281      C1370   1.484       .  S
N1282      C1283   1.359       .  A
C1283      N1284   1.360       .  A
C1283      C1402   1.495       .  S
N1284      C1285   1.356       .  A
C1285      N1286   1.356       .  A
C1285      C1386   1.477       .  S
C1287      C1645   1.488       .  S
C1287      C1292   1.403       .  A
C1288      C1453   1.481       .  S
C1288      C1289   1.402       .  A
C1289      C1290   1.400       .  A
C1289      H1294   1.084       .  S
C1290      C1482   1.485       .  S
C1291      C1405   1.480       .  S
C1291      C1292   1.402       .  A
C1292      H1293   1.084       .  S
C1295      C1389   1.486       .  S
C1295      C1296   1.417   1_545  A
C1295      C1300   1.407       .  A
C1296      C1578   1.485       .  S
C1296      C1297   1.402       .  A
C1297      C1298   1.401   1_565  A
C1297      H1302   1.085       .  S
C1298      C1437   1.480   1_545  S
C1298      C1299   1.408       .  A
C1299      C1549   1.481       .  S
C1299      C1300   1.402       .  A
C1300      H1301   1.084       .  S
Zr1303     O1304   2.441       .  S
Zr1303     O1306   2.437       .  S
Zr1303     O1309   2.429   1_545  S
Zr1303     O1313   2.408       .  S
Zr1303     O1314   2.401       .  S
O1304      H1360   0.990       .  S
O1304      H1368   0.991       .  S
O1305      C1325   1.283       .  A
O1306      C1327   1.282       .  A
O1307      C1326   1.286       .  A
O1308      C1327   1.284       .  A
O1309      C1326   1.283       .  A
O1310     Zr1318   2.416       .  S
O1310      C1325   1.280       .  A
O1311     Zr1316   2.396       .  S
O1311     Zr1318   2.382   1_545  S
O1312     Zr1317   2.398       .  S
O1312     Zr1318   2.374       .  S
O1312      H1347   0.967       .  S
O1313     Zr1333   2.392       .  S
O1313      H1350   0.966       .  S
O1314     Zr1333   2.388       .  S
Zr1315     O1340   2.441   1_545  S
Zr1315     O1342   2.431   1_545  S
Zr1315     O1330   2.429       .  S
Zr1316     O1328   2.434       .  S
Zr1316     O1322   2.399       .  S
Zr1317     O1341   2.438       .  S
Zr1317     O1321   2.388       .  S
Zr1318     O1344   2.436       .  S
Zr1318     O1345   2.436       .  S
Zr1318     O1320   2.436       .  S
Zr1318     O1321   2.388       .  S
Zr1318     O1322   2.390   1_565  S
O1319      H1356   0.990       .  S
O1320      H1351   0.990       .  S
O1320      H1365   0.990   1_565  S
O1322      H1348   0.965       .  S
O1323     Zr1333   2.379       .  S
O1324     Zr1333   2.381       .  S
C1325      C1565   1.476       .  S
C1326      C1418   1.482       .  S
C1327      C1466   1.478       .  S
O1328      H1364   0.990       .  S
O1329      C1331   1.286       .  A
O1330      C1331   1.284       .  A
C1331      C1373   1.495       .  S
O1332     Zr1333   2.441       .  S
O1332      H1361   0.990       .  S
Zr1333     O1336   2.437       .  S
Zr1333     O1337   2.442       .  S
O1334      C1339   1.284       .  A
O1335      H1352   0.990       .  S
O1335      H1367   0.990       .  S
O1336      H1353   0.990       .  S
O1337      H1357   0.990       .  S
O1338      C1339   1.282       .  A
C1339      C1514   1.484       .  S
O1340      H1359   0.990       .  S
O1340      H1363   0.991   1_565  S
O1341      H1355   0.990       .  S
O1341      H1362   0.990       .  S
O1342      C1346   1.283       .  A
O1343      C1346   1.286       .  A
O1344      H1354   0.990       .  S
O1345      H1358   0.990       .  S
C1346      C1610   1.480       .  S
C1369      C1370   1.406       .  A
C1369      C1374   1.409       .  A
C1369      H1376   1.084       .  S
C1370      C1371   1.413       .  A
C1371      C1372   1.400       .  A
C1371      C1378   1.510       .  S
C1372      C1373   1.409       .  A
C1372      H1377   1.083       .  S
C1373      C1374   1.419       .  A
C1375      H1379   1.111       .  S
C1375      H1380   1.110       .  S
C1375      H1381   1.110       .  S
C1378      H1382   1.110       .  S
C1378      H1383   1.109       .  S
C1378      H1384   1.111       .  S
C1385      C1386   1.403       .  A
C1385      C1390   1.406       .  A
C1385      H1392   1.084       .  S
C1386      C1387   1.412       .  A
C1387      C1388   1.403       .  A
C1387      C1394   1.507       .  S
C1388      C1389   1.403       .  A
C1388      H1393   1.083       .  S
C1389      C1390   1.416       .  A
C1390      C1391   1.509       .  S
C1391      H1395   1.111       .  S
C1391      H1396   1.107       .  S
C1391      H1397   1.108       .  S
C1394      H1398   1.110       .  S
C1394      H1399   1.109       .  S
C1394      H1400   1.111       .  S
C1401      C1402   1.409       .  A
C1401      C1406   1.401       .  A
C1401      H1408   1.083       .  S
C1402      C1403   1.424       .  A
C1403      C1404   1.406       .  A
C1403      C1410   1.508       .  S
C1404      C1405   1.399       .  A
C1405      C1406   1.407       .  A
C1406      C1407   1.505       .  S
C1407      H1411   1.111       .  S
C1407      H1412   1.105       .  S
C1407      H1413   1.110       .  S
C1410      H1415   1.110       .  S
C1417      C1418   1.402       .  A
C1417      C1422   1.408       .  A
C1417      H1424   1.084       .  S
C1418      C1419   1.413       .  A
C1419      C1420   1.400       .  A
C1419      C1426   1.508   1_565  S
C1420      C1421   1.409       .  A
C1420      H1425   1.081       .  S
C1421      C1422   1.425       .  A
C1422      C1423   1.508       .  S
C1423      H1427   1.111       .  S
C1423      H1428   1.110       .  S
C1423      H1429   1.110       .  S
C1426      H1430   1.105       .  S
C1426      H1431   1.110       .  S
C1426      H1432   1.111       .  S
C1433      C1434   1.408       .  A
C1433      C1438   1.398       .  A
C1433      H1440   1.079       .  S
C1434      C1435   1.421       .  A
C1435      C1436   1.407       .  A
C1435      C1442   1.506       .  S
C1436      C1437   1.401       .  A
C1436      H1441   1.082   1_565  S
C1437      C1438   1.406       .  A
C1438      C1439   1.508       .  S
C1439      H1443   1.111       .  S
C1439      H1444   1.109       .  S
C1439      H1445   1.110       .  S
C1442      H1446   1.109       .  S
C1442      H1447   1.110       .  S
C1442      H1448   1.111   1_565  S
C1449      C1450   1.406       .  A
C1449      C1454   1.405       .  A
C1449      H1456   1.083       .  S
C1450      C1451   1.419       .  A
C1451      C1452   1.397       .  A
C1451      C1458   1.506       .  S
C1452      C1453   1.397       .  A
C1452      H1457   1.084       .  S
C1453      C1454   1.413       .  A
C1454      C1455   1.508       .  S
C1455      H1459   1.111       .  S
C1455      H1461   1.109       .  S
C1458      H1462   1.111       .  S
C1458      H1463   1.105       .  S
C1458      H1464   1.111       .  S
C1465      C1466   1.403       .  A
C1465      C1470   1.404       .  A
C1465      H1472   1.084       .  S
C1466      C1467   1.415       .  A
C1467      C1468   1.406       .  A
C1467      C1474   1.508       .  S
C1468      C1469   1.403       .  A
C1468      H1473   1.084       .  S
C1469      C1470   1.411       .  A
C1470      C1471   1.505       .  S
C1471      H1475   1.111       .  S
C1471      H1476   1.107       .  S
C1471      H1477   1.110       .  S
C1474      H1478   1.108       .  S
C1474      H1480   1.111       .  S
C1481      C1482   1.401       .  A
C1481      C1486   1.403       .  A
C1481      H1488   1.083       .  S
C1482      C1483   1.415       .  A
C1483      C1484   1.404       .  A
C1484      C1485   1.406       .  A
C1484      H1489   1.084       .  S
C1485      C1486   1.417       .  A
C1486      C1487   1.507       .  S
C1487      H1491   1.111       .  S
C1487      H1492   1.109       .  S
C1487      H1493   1.110       .  S
C1490      H1494   1.110       .  S
C1490      H1495   1.107   1_455  S
C1490      H1496   1.110   1_455  S
C1497      C1498   1.405       .  A
C1497      C1502   1.411       .  A
C1497      H1504   1.084       .  S
C1498      C1499   1.409       .  A
C1499      C1500   1.402       .  A
C1499      C1506   1.503       .  S
C1500      C1501   1.405       .  A
C1500      H1505   1.083       .  S
C1501      C1502   1.419       .  A
C1502      C1503   1.505       .  S
C1503      H1507   1.111       .  S
C1503      H1508   1.110       .  S
C1503      H1509   1.110       .  S
C1506      H1510   1.110       .  S
C1506      H1511   1.105       .  S
C1506      H1512   1.110       .  S
C1513      C1514   1.404       .  A
C1513      C1518   1.406       .  A
C1513      H1520   1.084       .  S
C1514      C1515   1.417       .  A
C1515      C1516   1.402       .  A
C1515      C1522   1.507       .  S
C1516      C1517   1.401       .  A
C1516      H1521   1.084       .  S
C1517      C1518   1.416       .  A
C1518      C1519   1.508       .  S
C1519      H1523   1.111       .  S
C1519      H1524   1.108       .  S
C1519      H1525   1.111       .  S
C1522      H1526   1.105       .  S
C1522      H1527   1.111       .  S
C1522      H1528   1.111       .  S
C1529      C1530   1.403       .  A
C1529      C1534   1.404       .  A
C1529      H1536   1.084       .  S
C1530      C1531   1.413       .  A
C1531      C1532   1.406       .  A
C1531      C1538   1.506       .  S
C1532      C1533   1.404       .  A
C1532      H1537   1.084       .  S
C1533      C1534   1.418       .  A
C1534      C1535   1.511       .  S
C1535      H1539   1.111       .  S
C1535      H1540   1.108       .  S
C1535      H1541   1.108       .  S
C1538      H1542   1.110       .  S
C1538      H1543   1.110       .  S
C1538      H1544   1.111       .  S
C1545      C1546   1.407       .  A
C1545      C1550   1.405       .  A
C1545      H1552   1.084       .  S
C1546      C1547   1.424       .  A
C1547      C1548   1.403       .  A
C1547      C1554   1.509       .  S
C1548      C1549   1.397       .  A
C1548      H1553   1.084       .  S
C1549      C1550   1.413       .  A
C1550      C1551   1.507       .  S
C1551      H1555   1.111       .  S
C1551      H1556   1.108       .  S
C1551      H1557   1.110       .  S
C1554      H1558   1.109       .  S
C1554      H1559   1.110       .  S
C1554      H1560   1.111       .  S
C1561      C1562   1.406       .  A
C1561      C1566   1.401       .  A
C1561      H1568   1.080       .  S
C1562      C1563   1.420       .  A
C1563      C1564   1.407       .  A
C1563      C1570   1.508       .  S
C1564      C1565   1.402       .  A
C1564      H1569   1.084       .  S
C1565      C1566   1.411       .  A
C1566      C1567   1.508   1_565  S
C1567      H1571   1.111       .  S
C1567      H1572   1.108       .  S
C1567      H1573   1.111       .  S
C1570      H1574   1.109       .  S
C1570      H1575   1.110       .  S
C1570      H1576   1.111       .  S
C1577      C1578   1.398       .  A
C1577      C1582   1.402       .  A
C1577      H1584   1.085   1_565  S
C1578      C1579   1.411       .  A
C1579      C1580   1.408       .  A
C1579      C1586   1.503       .  S
C1580      C1581   1.407       .  A
C1580      H1585   1.084       .  S
C1581      C1582   1.421       .  A
C1582      C1583   1.506       .  S
C1583      H1587   1.111       .  S
C1583      H1588   1.110       .  S
C1583      H1589   1.107       .  S
C1586      H1590   1.110       .  S
C1586      H1591   1.106       .  S
C1586      H1592   1.111       .  S
C1593      C1594   1.403       .  A
C1593      C1598   1.406       .  A
C1593      H1600   1.084       .  S
C1594      C1595   1.413       .  A
C1595      C1596   1.408       .  A
C1595      C1602   1.506       .  S
C1596      C1597   1.406       .  A
C1596      H1601   1.082       .  S
C1597      C1598   1.418       .  A
C1598      C1599   1.510       .  S
C1599      H1603   1.111       .  S
C1599      H1604   1.108       .  S
C1599      H1605   1.107       .  S
C1602      H1606   1.109       .  S
C1602      H1607   1.111       .  S
C1602      H1608   1.111       .  S
C1609      C1610   1.403       .  A
C1609      C1614   1.409       .  A
C1610      C1611   1.412       .  A
C1611      C1612   1.405       .  A
C1611      C1618   1.507       .  S
C1612      C1613   1.404       .  A
C1612      H1617   1.084       .  S
C1613      C1614   1.419       .  A
C1614      C1615   1.507       .  S
C1615      H1620   1.110       .  S
C1615      H1621   1.109       .  S
C1618      H1622   1.111       .  S
C1618      H1623   1.110       .  S
C1618      H1624   1.111       .  S
C1625      C1626   1.408       .  A
C1625      C1630   1.400       .  A
C1625      H1632   1.080       .  S
C1626      C1627   1.419       .  A
C1627      C1628   1.411       .  A
C1627      C1634   1.506       .  S
C1628      C1629   1.405       .  A
C1628      H1633   1.084       .  S
C1629      C1630   1.408       .  A
C1630      C1631   1.506       .  S
C1631      H1635   1.111       .  S
C1631      H1636   1.106       .  S
C1631      H1637   1.110       .  S
C1634      H1638   1.110       .  S
C1634      H1639   1.110       .  S
C1634      H1640   1.111       .  S
C1641      C1642   1.405       .  A
C1641      C1646   1.408       .  A
C1641      H1648   1.084       .  S
C1642      C1643   1.416       .  A
C1643      C1644   1.399       .  A
C1643      C1650   1.507       .  S
C1644      C1645   1.400       .  A
C1644      H1649   1.083       .  S
C1645      C1646   1.415       .  A
C1646      C1647   1.507       .  S
C1647      H1651   1.111       .  S
C1647      H1652   1.110   1_655  S
C1647      H1653   1.109       .  S
C1650      H1654   1.111       .  S
C1650      H1655   1.105       .  S
