geometry optimzed in LAMMPS
_audit_creation_date              2020-11-30 
_audit_creation_method            'lammps2cif' 
_symmetry_space_group_name_H-M    'P1' 
_symmetry_Int_Tables_number       1 
_symmetry_cell_setting            triclinic 
loop_ 
_symmetry_equiv_pos_as_xyz 
  x,y,z 
_cell_length_a                    23.288340568758247 
_cell_length_b                    23.351485507896783 
_cell_length_c                    19.397738433595762 
_cell_angle_alpha                 89.9786564664165 
_cell_angle_beta                  90.05396520391633 
_cell_angle_gamma                 120.03048135536083 
loop_ 
_atom_site_label 
_atom_site_type_symbol 
_atom_site_fract_x 
_atom_site_fract_y 
_atom_site_fract_z 
_atom_site_charge 
O1          O  0.52140667  0.35415499  0.92112433    -0.87830
C2          C  0.85676532  0.52625968  0.10143916     1.12210
O3          O  0.61130993  0.31556013  0.99911346    -1.35640
O4          O  0.80897609  0.53132587  0.92322398    -0.89320
O5          O  0.47805011  0.24430532  0.92300986    -0.89980
O6          O  0.62209793  0.25327008  0.85429643    -0.78810
O7          O  0.66414883  0.44719905  0.93311507    -1.00890
C8          C  0.81276326  0.34264712  0.87169954     1.22250
O9          O  0.69505263  0.26279788  0.99867042    -1.35790
Mn10       Mn  0.68509555  0.32555797  0.07304707     1.82060
O11         O  0.75822622  0.33671970  0.85426053    -0.77880
O12         O  0.87661330  0.48910443  0.92160256    -0.87280
C13         C  0.81277181  0.34161029  0.12587794     1.13340
C14         C  0.85734425  0.52760300  0.89835692     1.08060
O15         O  0.62248743  0.25240712  0.14352056    -0.78820
O16         O  0.74773978  0.39907464  0.99909706    -1.32510
O17         O  0.56324478  0.18560672  0.06472847    -0.98030
C18         C  0.71345539  0.15387782  0.89740057     1.06770
Mn19       Mn  0.84734879  0.41776853  0.99916942     1.48570
O20         O  0.65556470  0.13491864  0.92024940    -0.87230
Mn21       Mn  0.52390026  0.21981832  0.99908565     1.49560
O22         O  0.52151225  0.35389369  0.07836801    -0.91110
C23         C  0.66781385  0.43669299  0.87180109     1.19970
C24         C  0.48309477  0.29608537  0.10153006     1.12030
Mn25       Mn  0.68498825  0.32603993  0.92479620     1.80970
O26         O  0.82557145  0.34502314  0.06439804    -0.96260
Mn27       Mn  0.59207948  0.39599657  0.99957102     1.49260
C28         C  0.48298296  0.29650242  0.89775231     1.08540
Mn29       Mn  0.79100052  0.27165640  0.99868061     1.49930
C30         C  0.71353371  0.15433812  0.10069342     1.11450
O31         O  0.56328565  0.18612753  0.93302479    -1.02060
O32         O  0.87639016  0.48825710  0.07763149    -0.91720
C33         C  0.57296325  0.19913152  0.87150759     1.22730
O34         O  0.82519367  0.34536468  0.93325743    -1.02450
O35         O  0.80870918  0.53040614  0.07624747    -0.89850
O36         O  0.76584093  0.20175959  0.07526294    -0.89450
O37         O  0.47844735  0.24427553  0.07555339    -0.89480
Mn38       Mn  0.73818630  0.48577783  0.99946457     1.47860
O39         O  0.75809142  0.33538375  0.14301750    -0.77950
C40         C  0.57324392  0.19834244  0.12628211     1.15780
O41         O  0.67588046  0.38933312  0.85539138    -0.76680
O42         O  0.67656271  0.38873826  0.14301480    -0.76300
Mn43       Mn  0.61383161  0.16379822  0.99863697     1.51060
O44         O  0.76598129  0.20129491  0.92239130    -0.88650
O45         O  0.66447846  0.44670984  0.06565450    -0.96180
O46         O  0.65576606  0.13477862  0.07681172    -0.91190
C47         C  0.66866477  0.43626942  0.12683811     1.13570
C48         C  0.74435655  0.02819433  0.34040931     0.00910
C49         C  0.71216513  0.96114746  0.33951703     0.00910
C50         C  0.35080855  0.95938390  0.33141932     0.00910
C51         C  0.38279764  0.02697087  0.33096206     0.00910
C52         C  0.74781844  0.02805206  0.66110957     0.00910
C53         C  0.71240020  0.96107862  0.65849908     0.00910
C54         C  0.34967710  0.95906454  0.66787231     0.00910
C55         C  0.38205379  0.02660136  0.66770293     0.00910
C56         C  0.68997633  0.62946812  0.33201587     0.00910
C57         C  0.65770498  0.66525757  0.33158425     0.00910
C58         C  0.32297689  0.26405537  0.33864814     0.00910
C59         C  0.29118761  0.29933736  0.33832575     0.00910
C60         C  0.68922749  0.62992248  0.66670395     0.00910
C61         C  0.65650611  0.66522591  0.66702940     0.00910
C62         C  0.32573103  0.26543940  0.65956395     0.00910
C63         C  0.29387568  0.30059374  0.65925483     0.00910
C64         C  0.70554661  0.81945265  0.46422222     0.00910
C65         C  0.70562810  0.81975397  0.53388088     0.00910
C66         C  0.98501585  0.32597757  0.33267272     0.00910
C67         C  0.05308641  0.35954104  0.33327201     0.00910
C68         C  0.98606642  0.68683675  0.33876496     0.00910
C69         C  0.05329846  0.72044274  0.33768060     0.00910
C70         C  0.05392811  0.72319701  0.66264724     0.00910
C71         C  0.98673236  0.68982925  0.66233990     0.00910
C72         C  0.98612349  0.32397687  0.66923244     0.00910
C73         C  0.05386092  0.35563621  0.67008835     0.00910
C74         C  0.19719819  0.85089021  0.46436914     0.00910
C75         C  0.19705045  0.85102803  0.53403139     0.00910
C76         C  0.15801242  0.30869909  0.46522024     0.00910
C77         C  0.15899732  0.30845992  0.53489951     0.00910
C78         C  0.87778711  0.17161195  0.46528125     0.00910
C79         C  0.87833510  0.17173645  0.53495314     0.00910
C80         C  0.84538784  0.68151217  0.53483690     0.01290
C81         C  0.84549188  0.68104617  0.46516828     0.00910
C82         C  0.33264400  0.13143657  0.46406200     0.00910
C83         C  0.33347967  0.13175905  0.53379707     0.00910
O84         O  0.38658448  0.49973971  0.07743356    -0.87830
C85         C  0.55254870  0.83322820  0.89603606     1.12210
O86         O  0.34501115  0.58790406  0.99958830    -1.35640
O87         O  0.56119243  0.78802288  0.07468902    -0.89320
O88         O  0.27616267  0.45539469  0.07604141    -0.89980
O89         O  0.28290677  0.59704803  0.14388783    -0.78810
O90         O  0.47770543  0.64397399  0.06480502    -1.00890
C91         C  0.36953657  0.78724153  0.12733166     1.22250
O92         O  0.29046256  0.66992858  0.00002168    -1.35790
Mn93       Mn  0.35398321  0.66082146  0.92533873     1.82060
O94         O  0.36438431  0.73311662  0.14448754    -0.77880
O95         O  0.51560253  0.85267125  0.07767197    -0.87280
C96         C  0.36821160  0.78758670  0.87268556     1.13340
C97         C  0.55528815  0.83463528  0.10040595     1.08060
O98         O  0.28095476  0.59739908  0.85517843    -0.78820
O99         O  0.42732808  0.72433617  0.99942840    -1.32510
O100        O  0.21458804  0.53838134  0.93432687    -0.98030
C101        C  0.18018786  0.68674733  0.10163445     1.06770
Mn102      Mn  0.44435743  0.82297445  0.99958316     1.48570
O103        O  0.16112564  0.62942822  0.07747238    -0.87230
Mn104      Mn  0.24960061  0.50013893  0.00022292     1.49560
O105        O  0.38577693  0.50008330  0.92061759    -0.91110
C106        C  0.46816773  0.64745673  0.12625110     1.19970
C107        C  0.32790713  0.46119250  0.89743555     1.12030
Mn108      Mn  0.35476424  0.66068403  0.07378711     1.80970
O109        O  0.37102566  0.80008928  0.93428372    -0.96260
Mn110      Mn  0.42705503  0.57092432  0.99919144     1.49260
C111        C  0.32891314  0.46022259  0.10052947     1.08540
Mn112      Mn  0.29781747  0.76507708  0.00066848     1.49930
C113        C  0.17988057  0.68751562  0.89902780     1.11450
O114        O  0.21334943  0.53815801  0.06640288    -1.02060
O115        O  0.51472649  0.85285252  0.92055631    -0.91720
C116        C  0.22742553  0.54932596  0.12767300     1.22730
O117        O  0.37194162  0.79970785  0.06577390    -1.02450
O118        O  0.55799627  0.78633839  0.92169083    -0.89850
O119        O  0.22636213  0.73990904  0.92526376    -0.89450
O120        O  0.27565667  0.45603161  0.92346135    -0.89480
Mn121      Mn  0.51532850  0.71714840  0.99880701     1.47860
O122        O  0.36331866  0.73363458  0.85520492    -0.77950
C123        C  0.22722445  0.54785553  0.87270272     1.15780
O124        O  0.41869524  0.65188976  0.14345538    -0.76680
O125        O  0.41730436  0.65177242  0.85493659    -0.76300
Mn126      Mn  0.19138367  0.58829392  0.99965851     1.51060
O127        O  0.22802258  0.73944433  0.07765209    -0.88650
O128        O  0.47630469  0.64365583  0.93353206    -0.96180
O129        O  0.16233693  0.62963411  0.92062074    -0.91190
C130        C  0.46656245  0.64683571  0.87206512     1.13570
C131        C  0.08917841  0.34090478  0.61760911    -0.12930
C132        C  0.11889571  0.32638937  0.57668910    -0.14490
C133        C  0.91887889  0.23052369  0.57561781    -0.12930
C134        C  0.94944722  0.27485933  0.61624159    -0.14490
C135        C  0.10282680  0.38556105  0.78924283    -0.13000
C136        C  0.09551954  0.40548579  0.72309291     0.09150
C137        C  0.13490693  0.47243506  0.70493174    -0.13000
C138        C  0.17880246  0.51873711  0.75288314    -0.13000
C139        C  0.18187339  0.49947524  0.82085021     0.09150
C140        C  0.14334899  0.43225797  0.83838663    -0.13000
H141        H  0.07865446  0.33372896  0.80256182     0.13130
H142        H  0.13270193  0.48854476  0.65311935     0.13130
H143        H  0.21018486  0.56954056  0.73686414     0.13130
H144        H  0.14662190  0.41534100  0.88945050     0.13130
C145        C  0.09403387  0.76782801  0.60889924    -0.12930
C146        C  0.13810204  0.80636977  0.57214839    -0.14490
C147        C  0.94732908  0.69742284  0.60962740    -0.12930
C148        C  0.90378026  0.69411301  0.57333846    -0.14490
C149        C  0.09396532  0.75024206  0.78355883    -0.13000
C150        C  0.09035670  0.71740236  0.72184453     0.09150
C151        C  0.11583985  0.67438366  0.71863349    -0.13000
C152        C  0.14282640  0.66268514  0.77752376    -0.13000
C153        C  0.14626132  0.69529659  0.83926491     0.09150
C154        C  0.12260723  0.73986695  0.84183364    -0.13000
H155        H  0.07384560  0.78313163  0.78661110     0.13130
H156        H  0.11284643  0.64845191  0.67127361     0.13130
H157        H  0.16208249  0.62927129  0.77483868     0.13130
H158        H  0.12568165  0.76595093  0.88910780     0.13130
C159        C  0.13836980  0.80564284  0.42633865    -0.12930
C160        C  0.09395196  0.76616070  0.39049296    -0.14490
C161        C  0.90391842  0.69289642  0.42731815    -0.12930
C162        C  0.94727884  0.69542405  0.39138856    -0.14490
C163        C  0.08700912  0.74212471  0.21463202    -0.13000
C164        C  0.08927208  0.71462607  0.27812664     0.09150
C165        C  0.12136518  0.67758068  0.28342790    -0.13000
C166        C  0.14946658  0.66662640  0.22501188    -0.13000
C167        C  0.14626942  0.69340088  0.16141184     0.09150
C168        C  0.11585240  0.73193849  0.15658927    -0.13000
H169        H  0.06216135  0.77067892  0.21007943     0.13130
H170        H  0.12321666  0.65606192  0.33227254     0.13130
H171        H  0.17477010  0.63852812  0.22960313     0.13130
H172        H  0.11418327  0.75373405  0.10784616     0.13130
C173        C  0.08664928  0.34258317  0.38641211    -0.12930
C174        C  0.11667529  0.32701257  0.42593708    -0.14490
C175        C  0.94852591  0.27558370  0.38479800    -0.12930
C176        C  0.91794406  0.23046548  0.42457159    -0.14490
C177        C  0.07977561  0.45342212  0.24676719    -0.13000
C178        C  0.09710721  0.41055302  0.28062468     0.09150
C179        C  0.16003545  0.41833742  0.26602628    -0.13000
C180        C  0.20282035  0.46555984  0.21880545    -0.13000
C181        C  0.18288633  0.50370177  0.18125865     0.09150
C182        C  0.12092629  0.49737651  0.19551396    -0.13000
H183        H  0.03468864  0.45352177  0.25950596     0.13130
H184        H  0.17679212  0.38789328  0.29112610     0.13130
H185        H  0.25130477  0.47150791  0.21064006     0.13130
H186        H  0.10500755  0.52748228  0.16828987     0.13130
C187        C  0.24643413  0.29313686  0.60726633    -0.12930
C188        C  0.20565464  0.29620461  0.57181291    -0.14490
C189        C  0.31772882  0.21818317  0.60732671    -0.12930
C190        C  0.32091625  0.17759627  0.57183006    -0.14490
C191        C  0.36244650  0.40310610  0.72891964    -0.13000
C192        C  0.30181760  0.34485993  0.71741122     0.09150
C193        C  0.24974616  0.32585379  0.76426160    -0.13000
C194        C  0.25864957  0.36357010  0.82308244    -0.13000
C195        C  0.32000944  0.42068293  0.83621354     0.09150
C196        C  0.37181471  0.44043418  0.78842436    -0.13000
H197        H  0.40275581  0.41889587  0.69244646     0.13130
H198        H  0.20274076  0.28098502  0.75600204     0.13130
H199        H  0.21770202  0.34752602  0.85879602     0.13130
H200        H  0.41907801  0.48503312  0.79659170     0.13130
C201        C  0.68706054  0.76107403  0.57486371    -0.12930
C202        C  0.67189873  0.71599665  0.61487675    -0.14490
C203        C  0.74024249  0.64682151  0.61416271    -0.12930
C204        C  0.78601181  0.66279513  0.57479286    -0.14490
C205        C  0.62528116  0.67036920  0.79043030    -0.13000
C206        C  0.60785444  0.65924785  0.72036650     0.09150
C207        C  0.54401058  0.64501538  0.70038800    -0.13000
C208        C  0.49785326  0.64029875  0.74956855    -0.13000
C209        C  0.51451229  0.64953246  0.81989901     0.09150
C210        C  0.57875046  0.66452609  0.83978236    -0.13000
H211        H  0.67469099  0.68296441  0.80686594     0.13130
H212        H  0.52981906  0.63725129  0.64652127     0.13130
H213        H  0.44904366  0.62923195  0.73259105     0.13130
H214        H  0.59350256  0.67309250  0.89346013     0.13130
C215        C  0.24400966  0.29310868  0.39007853    -0.12930
C216        C  0.20376465  0.29666221  0.42604182    -0.14490
C217        C  0.31451715  0.21672268  0.39105279    -0.12930
C218        C  0.31858451  0.17652710  0.42644842    -0.14490
C219        C  0.25635963  0.31612862  0.22283616    -0.13000
C220        C  0.29913923  0.34252088  0.27932625     0.09150
C221        C  0.35279097  0.40747584  0.27660607    -0.13000
C222        C  0.36473404  0.44505232  0.21676271    -0.13000
C223        C  0.32178715  0.41859439  0.16012542     0.09150
C224        C  0.26721931  0.35417036  0.16382355    -0.13000
H225        H  0.21513431  0.26583399  0.22427724     0.13130
H226        H  0.38614647  0.42828371  0.32011273     0.13130
H227        H  0.40620182  0.49519282  0.21533253     0.13130
H228        H  0.23313266  0.33328747  0.12087980     0.13130
C229        C  0.68749527  0.76061378  0.42390985    -0.12930
C230        C  0.67286045  0.71562910  0.38400913    -0.14490
C231        C  0.74073810  0.64616739  0.38493024    -0.12930
C232        C  0.78630874  0.66214234  0.42466974    -0.14490
C233        C  0.62800494  0.67456753  0.20871290    -0.13000
C234        C  0.60948517  0.66022921  0.27823960     0.09150
C235        C  0.54478276  0.64331286  0.29773434    -0.13000
C236        C  0.49875771  0.63882446  0.24843976    -0.13000
C237        C  0.51637311  0.65075939  0.17848171     0.09150
C238        C  0.58156365  0.66878554  0.15916382    -0.13000
H239        H  0.67805426  0.68916833  0.19280202     0.13130
H240        H  0.52980212  0.63313342  0.35125365     0.13130
H241        H  0.44919280  0.62547898  0.26496586     0.13130
H242        H  0.59698486  0.67952508  0.10581968     0.13130
C243        C  0.36734544  0.06182579  0.61489134    -0.12930
C244        C  0.35247610  0.09168643  0.57439758    -0.14490
C245        C  0.30028638  0.92218428  0.61526811    -0.12930
C246        C  0.25583101  0.89152702  0.57476091    -0.14490
C247        C  0.33283366  0.91298449  0.78802452    -0.13000
C248        C  0.35959184  0.91922163  0.72180414     0.09150
C249        C  0.38833000  0.88055223  0.70477060    -0.13000
C250        C  0.39151747  0.83773006  0.75359663    -0.13000
C251        C  0.36710965  0.83378713  0.82076702     0.09150
C252        C  0.33840806  0.87247300  0.83753848    -0.13000
H253        H  0.30531738  0.93743697  0.80090009     0.13130
H254        H  0.40721053  0.88267959  0.65326041     0.13130
H255        H  0.41328836  0.80797043  0.73903132     0.13130
H256        H  0.31756431  0.86920013  0.88825382     0.13130
C257        C  0.83351221  0.11297913  0.57300545    -0.12930
C258        C  0.79400222  0.06858567  0.60867409    -0.14490
C259        C  0.72121859  0.92251962  0.60600720    -0.12930
C260        C  0.71817378  0.87845473  0.57118964    -0.14490
C261        C  0.61332778  0.93304587  0.73208849    -0.13000
C262        C  0.66606681  0.92286943  0.71454265     0.09150
C263        C  0.67885286  0.88065914  0.75454087    -0.13000
C264        C  0.64178946  0.85170622  0.81351558    -0.13000
C265        C  0.59133652  0.86462024  0.83359141     0.09150
C266        C  0.57660804  0.90468196  0.79176659    -0.13000
H267        H  0.60217230  0.96467781  0.70079958     0.13130
H268        H  0.71923719  0.87218753  0.74155516     0.13130
H269        H  0.65367867  0.82023386  0.84414451     0.13130
H270        H  0.53695051  0.91411324  0.80514641     0.13130
C271        C  0.36723645  0.06227457  0.38277081    -0.12930
C272        C  0.35177462  0.09177910  0.42302852    -0.14490
C273        C  0.30102977  0.92266302  0.38388259    -0.12930
C274        C  0.25616007  0.89164738  0.42387308    -0.14490
C275        C  0.37916645  0.87232765  0.29808932    -0.13000
C276        C  0.36113407  0.91914198  0.27817055     0.09150
C277        C  0.34498900  0.92100607  0.20875860    -0.13000
C278        C  0.35037070  0.88004099  0.15977275    -0.13000
C279        C  0.36861408  0.83341867  0.17945309     0.09150
C280        C  0.38226760  0.82946422  0.24938769    -0.13000
H281        H  0.38970900  0.86819789  0.35167711     0.13130
H282        H  0.32516660  0.95180008  0.19255412     0.13130
H283        H  0.33736609  0.88289218  0.10675270     0.13130
H284        H  0.39540457  0.79331996  0.26637874     0.13130
C285        C  0.72033830  0.92151851  0.39115056    -0.12930
C286        C  0.71752049  0.87762136  0.42614104    -0.14490
C287        C  0.79165325  0.06807538  0.39264380    -0.12930
C288        C  0.83211218  0.11264240  0.42767038    -0.14490
C289        C  0.60320683  0.90606858  0.27865999    -0.13000
C290        C  0.67042298  0.92439398  0.28022980     0.09150
C291        C  0.69948449  0.91237766  0.22302120    -0.13000
C292        C  0.66187069  0.88325097  0.16405444    -0.13000
C293        C  0.59542412  0.86765955  0.16118910     0.09150
C294        C  0.56621495  0.87910921  0.21876105    -0.13000
H295        H  0.58022329  0.91474736  0.32289382     0.13130
H296        H  0.75141270  0.92642806  0.22385768     0.13130
H297        H  0.68482400  0.87386849  0.12026368     0.13130
H298        H  0.51465424  0.86607010  0.21767203     0.13130
C299        C  0.62179153  0.49987656  0.18497077    -0.13000
C300        C  0.67111931  0.48254761  0.18023590     0.09150
C301        C  0.72393773  0.51031621  0.22694186    -0.13000
C302        C  0.72993725  0.55815597  0.27427947    -0.13000
C303        C  0.68071242  0.57661127  0.27999224     0.09150
C304        C  0.62425555  0.54267545  0.23709361    -0.13000
H305        H  0.57997529  0.47836746  0.14992204     0.13130
H306        H  0.76204589  0.49672223  0.22513993     0.13130
H307        H  0.77384673  0.58052526  0.30632620     0.13130
H308        H  0.58104406  0.54764585  0.24315597     0.13130
C309        C  0.42886736  0.32700468  0.27367392    -0.13000
C310        C  0.36668401  0.26995043  0.28097817     0.09150
C311        C  0.34376249  0.22050804  0.23054676    -0.13000
C312        C  0.38170339  0.22920344  0.17184781    -0.13000
C313        C  0.44262294  0.28779908  0.16269425     0.09150
C314        C  0.46632241  0.33612559  0.21451123    -0.13000
H315        H  0.44761647  0.36494001  0.31309747     0.13130
H316        H  0.29585130  0.17609648  0.23591524     0.13130
H317        H  0.36294541  0.19066487  0.13305768     0.13130
H318        H  0.51423383  0.38010803  0.20997656     0.13130
C319        C  0.47259740  0.32754127  0.77821976    -0.13000
C320        C  0.44295918  0.28898980  0.83696550     0.09150
C321        C  0.37602417  0.23946571  0.83539643    -0.13000
C322        C  0.33822925  0.23054658  0.77653040    -0.13000
C323        C  0.36752743  0.27015831  0.71845733     0.09150
C324        C  0.43510056  0.31772603  0.71881750    -0.13000
H325        H  0.52486716  0.36393825  0.77784239     0.13130
H326        H  0.35291178  0.20852482  0.88006565     0.13130
H327        H  0.28596506  0.19371996  0.77651135     0.13130
H328        H  0.45811292  0.34823113  0.67386031     0.13130
C329        C  0.72571508  0.51498001  0.77576861    -0.13000
C330        C  0.67005413  0.48294990  0.81835390     0.09150
C331        C  0.61778854  0.49564886  0.80895297    -0.13000
C332        C  0.62122851  0.53940117  0.75721169    -0.13000
C333        C  0.68007398  0.57729839  0.71877813     0.09150
C334        C  0.73174070  0.56290121  0.72857823    -0.13000
H335        H  0.76561910  0.50420191  0.78041250     0.13130
H336        H  0.57337766  0.47008321  0.84002171     0.13130
H337        H  0.57723742  0.54249417  0.74777278     0.13130
H338        H  0.77755906  0.58861743  0.69981502     0.13130
C339        C  0.54676927  0.14447732  0.24363750    -0.13000
C340        C  0.52554033  0.15284875  0.17842361     0.09150
C341        C  0.45723045  0.11940603  0.16403288    -0.13000
C342        C  0.41116808  0.08000119  0.21411432    -0.13000
C343        C  0.43231635  0.06820140  0.27755869     0.09150
C344        C  0.50058288  0.10145711  0.29231451    -0.13000
H345        H  0.59904386  0.17047079  0.25651426     0.13130
H346        H  0.43913399  0.12552076  0.11477014     0.13130
H347        H  0.35884880  0.05918015  0.20342131     0.13130
H348        H  0.51794902  0.09501434  0.34194119     0.13130
C349        C  0.66778153  0.08833219  0.20816838    -0.13000
C350        C  0.72097742  0.12220814  0.16240947     0.09150
C351        C  0.78295212  0.12890451  0.17830237    -0.13000
C352        C  0.79089519  0.10003196  0.23758783    -0.13000
C353        C  0.73735810  0.06502040  0.28231096     0.09150
C354        C  0.67640607  0.06124088  0.26861024    -0.13000
H355        H  0.61988453  0.08340280  0.19759057     0.13130
H356        H  0.82504522  0.15552411  0.14430686     0.13130
H357        H  0.83831710  0.10359283  0.24780782     0.13130
H358        H  0.63517344  0.03595123  0.30385411     0.13130
C359        C  0.69945756  0.12888167  0.77287766    -0.13000
C360        C  0.72087972  0.12060143  0.83763581     0.09150
C361        C  0.75466580  0.08540510  0.84391370    -0.13000
C362        C  0.76516229  0.05677573  0.78587012    -0.13000
C363        C  0.74255123  0.06385986  0.72110037     0.09150
C364        C  0.71061817  0.10094088  0.71456739    -0.13000
H365        H  0.67527799  0.15785900  0.76755440     0.13130
H366        H  0.77244462  0.07983750  0.89369199     0.13130
H367        H  0.78994511  0.02824360  0.79138251     0.13130
H368        H  0.69299022  0.10670617  0.66478831     0.13130
C369        C  0.49862349  0.10897315  0.70269986    -0.13000
C370        C  0.43177486  0.06797626  0.72092261     0.09150
C371        C  0.41166194  0.07257433  0.78787506    -0.13000
C372        C  0.45807886  0.11316137  0.83718697    -0.13000
C373        C  0.52515196  0.15362430  0.81944235     0.09150
C374        C  0.54469023  0.15224138  0.75118967    -0.13000
H375        H  0.51483456  0.10835225  0.65052491     0.13130
H376        H  0.35980885  0.04639792  0.80167901     0.13130
H377        H  0.44097849  0.11484604  0.88864682     0.13130
H378        H  0.59543428  0.18462592  0.73529103     0.13130
C379        C  0.92510727  0.55060571  0.79158207    -0.13000
C380        C  0.89130080  0.56918078  0.83824109     0.09150
C381        C  0.88612272  0.62555952  0.82453662    -0.13000
C382        C  0.91513460  0.66333725  0.76579190    -0.13000
C383        C  0.94966140  0.64529586  0.71995076     0.09150
C384        C  0.95351719  0.58809976  0.73238549    -0.13000
H385        H  0.92871364  0.50669877  0.80032051     0.13130
H386        H  0.85976855  0.64057243  0.85938791     0.13130
H387        H  0.91200968  0.70748827  0.75683239     0.13130
H388        H  0.97959402  0.57333312  0.69687083     0.13130
C389        C  0.85957700  0.36084503  0.75119637    -0.13000
C390        C  0.85943134  0.34196209  0.82007243     0.09150
C391        C  0.90233579  0.31868766  0.83912896    -0.13000
C392        C  0.94337033  0.31306517  0.79037515    -0.13000
C393        C  0.94576036  0.33432900  0.72223696     0.09150
C394        C  0.90275475  0.35753402  0.70287485    -0.13000
H395        H  0.82645941  0.37821653  0.73483064     0.13130
H396        H  0.90191901  0.30180026  0.89124450     0.13130
H397        H  0.97077113  0.28912619  0.80546780     0.13130
H398        H  0.90183026  0.37198753  0.65000379     0.13130
C399        C  0.85042749  0.34873902  0.24856232    -0.13000
C400        C  0.85896176  0.34072816  0.17822540     0.09150
C401        C  0.91017704  0.32866240  0.15864694    -0.13000
C402        C  0.95137078  0.32397783  0.20835870    -0.13000
C403        C  0.94342019  0.33309800  0.27857907     0.09150
C404        C  0.89221374  0.34502577  0.29809683    -0.13000
H405        H  0.81128478  0.35771662  0.26534107     0.13130
H406        H  0.91739132  0.32124138  0.10494759     0.13130
H407        H  0.98931057  0.31301373  0.19210431     0.13130
H408        H  0.88447470  0.35130681  0.35198149     0.13130
C409        C  0.92584278  0.54917546  0.20753117    -0.13000
C410        C  0.88989387  0.56674196  0.16255301     0.09150
C411        C  0.88226341  0.62127873  0.17859691    -0.13000
C412        C  0.91115888  0.65843766  0.23772074    -0.13000
C413        C  0.94828254  0.64182502  0.28158801     0.09150
C414        C  0.95440999  0.58622274  0.26701122    -0.13000
H415        H  0.93135866  0.50660692  0.19708819     0.13130
H416        H  0.85423009  0.63550834  0.14518300     0.13130
H417        H  0.90624486  0.70134166  0.24824449     0.13130
H418        H  0.98262679  0.57259307  0.30088082     0.13130
loop_ 
_geom_bond_atom_site_label_1 
_geom_bond_atom_site_label_2 
_geom_bond_distance 
_geom_bond_site_symmetry_2 
_ccdc_geom_bond_type 
O1           C28   1.270       .  A
O1          Mn27   2.089       .  S
C2           O35   1.268       .  A
C2           O32   1.271       .  A
C2          C410   1.471       .  S
O3          Mn10   2.158   1_556  S
O3          Mn21   2.142       .  S
O3          Mn25   2.160       .  S
O3          Mn27   2.138       .  S
O4           C14   1.268       .  A
O4          Mn38   2.070       .  S
O5           C28   1.264       .  A
O5          Mn21   2.062       .  S
O6           C33   1.254       .  A
O6          Mn25   2.100       .  S
O7          Mn38   1.971       .  S
O7          Mn27   1.976       .  S
O7           C23   1.226       .  S
C8           O11   1.253       .  A
C8          C390   1.485       .  S
C8           O34   1.223       .  S
O9          Mn29   2.138       .  S
O9          Mn10   2.151   1_556  S
O9          Mn43   2.132       .  S
O9          Mn25   2.153       .  S
Mn10         O39   2.095       .  S
Mn10         O15   2.103       .  S
Mn10         O42   2.087       .  S
Mn10         O16   2.151   1_554  S
O11         Mn25   2.103       .  S
O12          C14   1.271       .  A
O12         Mn19   2.090       .  S
C13          O39   1.252       .  A
C13         C400   1.486       .  S
C13          O26   1.222       .  S
C14         C380   1.470       .  S
O15          C40   1.254       .  A
O16         Mn19   2.135       .  S
O16         Mn38   2.145       .  S
O16         Mn25   2.151       .  S
O17         Mn21   1.957   1_554  S
O17         Mn43   1.973   1_554  S
O17          C40   1.224       .  S
C18          O44   1.265       .  A
C18          O20   1.270       .  A
C18         C360   1.454       .  S
Mn19         O32   2.090   1_556  S
Mn19         O34   1.971       .  S
Mn19         O26   1.970   1_556  S
O20         Mn43   2.091       .  S
Mn21         O37   2.063   1_556  S
Mn21         O31   1.956       .  S
O22          C24   1.271       .  A
O22         Mn27   2.095   1_554  S
C23          O41   1.252       .  A
C23         C330   1.479       .  S
C24          O37   1.264       .  A
C24         C313   1.467       .  S
Mn25         O41   2.087       .  S
O26         Mn29   1.956   1_554  S
Mn27         O45   1.972   1_556  S
C28         C320   1.458       .  S
Mn29         O36   2.063   1_556  S
Mn29         O44   2.067       .  S
Mn29         O34   1.958       .  S
C30          O36   1.267       .  A
C30          O46   1.272       .  A
C30         C350   1.468       .  S
O31         Mn43   1.972       .  S
O31          C33   1.224       .  S
C33         C373   1.484       .  S
O35         Mn38   2.070   1_554  S
Mn38         O45   1.965   1_556  S
C40         C340   1.485       .  S
O42          C47   1.252       .  A
Mn43         O46   2.091   1_556  S
O45          C47   1.225       .  S
C47         C300   1.477       .  S
C48          C49   1.356   1_545  D
C48         C287   1.442       .  S
C48         C353   1.475       .  S
C49         C285   1.439       .  S
C49         C290   1.472       .  S
C50          C51   1.367   1_565  D
C50         C273   1.457       .  S
C50         C276   1.495       .  S
C51         C271   1.456       .  S
C51         C343   1.490       .  S
C52          C53   1.356   1_545  D
C52         C258   1.439       .  S
C52         C363   1.474       .  S
C53         C259   1.441       .  S
C53         C262   1.477       .  S
C54          C55   1.366   1_565  D
C54         C245   1.454       .  S
C54         C248   1.492       .  S
C55         C243   1.457       .  S
C55         C370   1.490       .  S
C56          C57   1.376       .  D
C56         C231   1.463       .  S
C56         C303   1.524       .  S
C57         C230   1.458       .  S
C57         C234   1.487       .  S
C58          C59   1.356       .  D
C58         C217   1.441       .  S
C58         C310   1.472       .  S
C59         C215   1.442       .  S
C59         C220   1.474       .  S
C60          C61   1.374       .  D
C60         C203   1.462       .  S
C60         C333   1.521       .  S
C61         C202   1.460       .  S
C61         C206   1.489       .  S
C62          C63   1.354       .  D
C62         C189   1.440       .  S
C62         C323   1.468       .  S
C63         C187   1.440       .  S
C63         C192   1.478       .  S
C64          C65   1.351       .  D
C64         C229   1.448       .  S
C64         C286   1.445       .  S
C65         C201   1.450       .  S
C65         C260   1.445       .  S
C66          C67   1.373   1_655  D
C66         C175   1.459       .  S
C66         C403   1.492       .  S
C67         C173   1.462       .  S
C67         C178   1.514       .  S
C68          C69   1.356   1_655  D
C68         C162   1.443       .  S
C68         C413   1.477       .  S
C69         C160   1.440       .  S
C69         C164   1.473       .  S
C70          C71   1.355   1_455  D
C70         C145   1.440       .  S
C70         C150   1.473       .  S
C71         C147   1.442       .  S
C71         C383   1.476       .  S
C72          C73   1.367   1_655  D
C72         C134   1.456       .  S
C72         C393   1.493       .  S
C73         C131   1.455       .  S
C73         C136   1.491       .  S
C74          C75   1.351       .  D
C74         C159   1.445       .  S
C74         C274   1.450       .  S
C75         C146   1.445       .  S
C75         C246   1.447       .  S
C76          C77   1.352       .  D
C76         C174   1.449       .  S
C76         C216   1.447       .  S
C77         C132   1.448       .  S
C77         C188   1.444       .  S
C78          C79   1.352       .  D
C78         C176   1.450       .  S
C78         C288   1.447       .  S
C79         C133   1.449       .  S
C79         C257   1.444       .  S
C80          C81   1.351       .  D
C80         C148   1.446       .  S
C80         C204   1.449       .  S
C81         C161   1.446       .  S
C81         C232   1.449       .  S
C82          C83   1.353       .  D
C82         C218   1.446       .  S
C82         C272   1.450       .  S
C83         C190   1.446       .  S
C83         C244   1.451       .  S
O84         C111   1.271       .  A
O84        Mn110   2.095   1_554  S
C85         O118   1.265       .  A
C85         O115   1.272       .  A
C85         C265   1.469       .  S
O86         Mn93   2.159       .  S
O86        Mn104   2.140   1_556  S
O86        Mn108   2.151   1_556  S
O86        Mn110   2.137       .  S
O87          C97   1.266       .  A
O87        Mn121   2.068   1_554  S
O88         C111   1.268       .  A
O88        Mn104   2.069       .  S
O89         C116   1.252       .  A
O89        Mn108   2.091       .  S
O90        Mn121   1.957   1_554  S
O90        Mn110   1.976   1_554  S
O90         C106   1.223       .  S
C91          O94   1.253       .  A
C91         C279   1.486       .  S
C91         O117   1.224       .  S
O92        Mn112   2.141       .  S
O92         Mn93   2.157   1_554  S
O92        Mn126   2.134   1_554  S
O92        Mn108   2.158       .  S
Mn93        O122   2.102       .  S
Mn93         O98   2.101       .  S
Mn93        O125   2.098       .  S
Mn93         O99   2.155       .  S
O94        Mn108   2.101       .  S
O95          C97   1.271       .  A
O95        Mn102   2.091   1_554  S
C96         O122   1.254       .  A
C96         C251   1.485       .  S
C96         O109   1.224       .  S
C97         C293   1.461       .  S
O98         C123   1.254       .  A
O99        Mn102   2.133       .  S
O99        Mn121   2.138       .  S
O99        Mn108   2.153   1_556  S
O100       Mn104   1.955   1_556  S
O100       Mn126   1.972       .  S
O100        C123   1.225       .  S
C101        O127   1.265       .  A
C101        O103   1.270       .  A
C101        C167   1.455       .  S
Mn102       O115   2.093       .  S
Mn102       O117   1.968   1_556  S
Mn102       O109   1.972       .  S
O103       Mn126   2.092   1_554  S
Mn104       O120   2.068   1_554  S
Mn104       O114   1.975       .  S
O105        C107   1.272       .  A
O105       Mn110   2.095       .  S
C106        O124   1.253       .  A
C106        C237   1.485       .  S
C107        O120   1.267       .  A
C107        C195   1.471       .  S
Mn108       O124   2.095       .  S
O109       Mn112   1.960   1_556  S
Mn110       O128   1.968       .  S
C111        C223   1.465       .  S
Mn112       O119   2.067   1_554  S
Mn112       O127   2.064       .  S
Mn112       O117   1.957       .  S
C113        O119   1.265       .  A
C113        O129   1.271       .  A
C113        C153   1.460       .  S
O114       Mn126   1.976   1_554  S
O114        C116   1.226       .  S
C116        C181   1.479       .  S
O118       Mn121   2.057       .  S
Mn121       O128   1.953       .  S
C123        C139   1.486       .  S
O125        C130   1.253       .  A
Mn126       O129   2.095       .  S
O128        C130   1.223       .  S
C130        C209   1.485       .  S
C131        C132   1.208       .  T
C133        C134   1.209       .  T
C135        C136   1.404       .  A
C135        C140   1.399       .  A
C135        H141   1.080       .  S
C136        C137   1.405       .  A
C137        C138   1.404       .  A
C137        H142   1.083       .  S
C138        C139   1.406       .  A
C138        H143   1.082       .  S
C139        C140   1.405       .  A
C140        H144   1.083       .  S
C145        C146   1.203       .  T
C147        C148   1.204       .  T
C149        C150   1.402       .  A
C149        C154   1.393       .  A
C149        H155   1.083       .  S
C150        C151   1.401       .  A
C151        C152   1.395       .  A
C151        H156   1.083       .  S
C152        C153   1.400       .  A
C152        H157   1.078       .  S
C153        C154   1.401       .  A
C154        H158   1.083       .  S
C159        C160   1.203       .  T
C161        C162   1.204       .  T
C163        C164   1.402       .  A
C163        C168   1.392       .  A
C163        H169   1.083       .  S
C164        C165   1.402       .  A
C165        C166   1.395       .  A
C165        H170   1.083       .  S
C166        C167   1.402       .  A
C166        H171   1.083       .  S
C167        C168   1.399       .  A
C168        H172   1.083       .  S
C173        C174   1.209       .  T
C175        C176   1.209       .  T
C177        C178   1.414       .  A
C177        C182   1.406       .  A
C177        H183   1.080       .  S
C178        C179   1.412       .  A
C179        C180   1.396       .  A
C179        H184   1.082       .  S
C180        C181   1.397       .  A
C180        H185   1.078       .  S
C181        C182   1.403       .  A
C182        H186   1.082       .  S
C187        C188   1.203       .  T
C189        C190   1.204       .  T
C191        C192   1.404       .  A
C191        C196   1.396       .  A
C191        H197   1.083       .  S
C192        C193   1.399       .  A
C193        C194   1.392       .  A
C193        H198   1.083       .  S
C194        C195   1.406       .  A
C194        H199   1.083       .  S
C195        C196   1.404       .  A
C196        H200   1.083       .  S
C201        C202   1.210       .  T
C203        C204   1.209       .  T
C205        C206   1.405       .  A
C205        C210   1.401       .  A
C205        H211   1.083       .  S
C206        C207   1.406       .  A
C207        C208   1.400       .  A
C207        H212   1.083       .  S
C208        C209   1.405       .  A
C208        H213   1.083       .  S
C209        C210   1.409       .  A
C210        H214   1.083       .  S
C215        C216   1.205       .  T
C217        C218   1.204       .  T
C219        C220   1.399       .  A
C219        C224   1.392       .  A
C219        H225   1.083       .  S
C220        C221   1.403       .  A
C221        C222   1.397       .  A
C221        H226   1.083       .  S
C222        C223   1.403       .  A
C222        H227   1.083       .  S
C223        C224   1.404       .  A
C224        H228   1.083       .  S
C229        C230   1.208       .  T
C231        C232   1.209       .  T
C233        C234   1.405       .  A
C233        C238   1.401       .  A
C233        H239   1.083       .  S
C234        C235   1.405       .  A
C235        C236   1.400       .  A
C235        H240   1.083       .  S
C236        C237   1.405       .  A
C236        H241   1.083       .  S
C237        C238   1.408       .  A
C238        H242   1.083       .  S
C243        C244   1.210       .  T
C245        C246   1.208       .  T
C247        C248   1.404       .  A
C247        C252   1.399       .  A
C247        H253   1.080       .  S
C248        C249   1.406       .  A
C249        C250   1.406       .  A
C249        H254   1.083       .  S
C250        C251   1.406       .  A
C250        H255   1.083       .  S
C251        C252   1.405       .  A
C252        H256   1.083       .  S
C257        C258   1.202       .  T
C259        C260   1.203       .  T
C261        C262   1.405       .  A
C261        C266   1.394       .  A
C261        H267   1.083       .  S
C262        C263   1.398       .  A
C263        C264   1.389       .  A
C263        H268   1.083       .  S
C264        C265   1.407       .  A
C264        H269   1.083       .  S
C265        C266   1.404       .  A
C266        H270   1.083       .  S
C271        C272   1.210       .  T
C273        C274   1.209       .  T
C275        C276   1.407       .  A
C275        C280   1.405       .  A
C275        H281   1.083       .  S
C276        C277   1.404       .  A
C277        C278   1.398       .  A
C277        H282   1.077       .  S
C278        C279   1.405       .  A
C278        H283   1.083       .  S
C279        C280   1.407       .  A
C280        H284   1.083       .  S
C285        C286   1.203       .  T
C287        C288   1.204       .  T
C289        C290   1.401       .  A
C289        C294   1.394       .  A
C289        H295   1.083       .  S
C290        C291   1.400       .  A
C291        C292   1.393       .  A
C291        H296   1.083       .  S
C292        C293   1.402       .  A
C292        H297   1.083       .  S
C293        C294   1.402       .  A
C294        H298   1.081       .  S
C299        C300   1.399       .  A
C299        C304   1.403       .  A
C299        H305   1.083       .  S
C300        C301   1.398       .  A
C301        C302   1.398       .  A
C301        H306   1.082       .  S
C302        C303   1.417       .  A
C302        H307   1.081       .  S
C303        C304   1.416       .  A
C304        H308   1.076       .  S
C309        C310   1.400       .  A
C309        C314   1.392       .  A
C309        H315   1.083       .  S
C310        C311   1.399       .  A
C311        C312   1.393       .  A
C311        H316   1.083       .  S
C312        C313   1.405       .  A
C312        H317   1.083       .  S
C313        C314   1.402       .  A
C314        H318   1.077       .  S
C319        C320   1.401       .  A
C319        C324   1.393       .  A
C319        H325   1.081       .  S
C320        C321   1.401       .  A
C321        C322   1.392       .  A
C321        H326   1.083       .  S
C322        C323   1.400       .  A
C322        H327   1.083       .  S
C323        C324   1.400       .  A
C324        H328   1.083       .  S
C329        C330   1.398       .  A
C329        C334   1.397       .  A
C329        H335   1.081       .  S
C330        C331   1.401       .  A
C331        C332   1.405       .  A
C331        H336   1.083       .  S
C332        C333   1.416       .  A
C332        H337   1.078       .  S
C333        C334   1.415       .  A
C334        H338   1.082       .  S
C339        C340   1.406       .  A
C339        C344   1.406       .  A
C339        H345   1.083       .  S
C340        C341   1.405       .  A
C341        C342   1.398       .  A
C341        H346   1.082       .  S
C342        C343   1.403       .  A
C342        H347   1.082       .  S
C343        C344   1.406       .  A
C344        H348   1.083       .  S
C349        C350   1.403       .  A
C349        C354   1.393       .  A
C349        H355   1.082       .  S
C350        C351   1.406       .  A
C351        C352   1.391       .  A
C351        H356   1.083       .  S
C352        C353   1.399       .  A
C352        H357   1.083       .  S
C353        C354   1.403       .  A
C354        H358   1.082       .  S
C359        C360   1.400       .  A
C359        C364   1.394       .  A
C359        H365   1.080       .  S
C360        C361   1.399       .  A
C361        C362   1.392       .  A
C361        H366   1.083       .  S
C362        C363   1.403       .  A
C362        H367   1.083       .  S
C363        C364   1.401       .  A
C364        H368   1.083       .  S
C369        C370   1.405       .  A
C369        C374   1.404       .  A
C369        H375   1.083       .  S
C370        C371   1.403       .  A
C371        C372   1.398       .  A
C371        H376   1.079       .  S
C372        C373   1.405       .  A
C372        H377   1.083       .  S
C373        C374   1.406       .  A
C374        H378   1.081       .  S
C379        C380   1.404       .  A
C379        C384   1.394       .  A
C379        H385   1.083       .  S
C380        C381   1.406       .  A
C381        C382   1.392       .  A
C381        H386   1.083       .  S
C382        C383   1.398       .  A
C382        H387   1.083       .  S
C383        C384   1.404       .  A
C384        H388   1.083       .  S
C389        C390   1.406       .  A
C389        C394   1.405       .  A
C389        H395   1.083       .  S
C390        C391   1.405       .  A
C391        C392   1.397       .  A
C391        H396   1.083       .  S
C392        C393   1.403       .  A
C392        H397   1.078       .  S
C393        C394   1.407       .  A
C394        H398   1.083       .  S
C399        C400   1.405       .  A
C399        C404   1.400       .  A
C399        H405   1.083       .  S
C400        C401   1.408       .  A
C401        C402   1.402       .  A
C401        H406   1.083       .  S
C402        C403   1.405       .  A
C402        H407   1.083       .  S
C403        C404   1.406       .  A
C404        H408   1.083       .  S
C409        C410   1.404       .  A
C409        C414   1.395       .  A
C409        H415   1.083       .  S
C410        C411   1.406       .  A
C411        C412   1.391       .  A
C411        H416   1.083       .  S
C412        C413   1.399       .  A
C412        H417   1.083       .  S
C413        C414   1.404       .  A
C414        H418   1.083       .  S
