geometry optimzed in LAMMPS
_audit_creation_date              2020-11-30 
_audit_creation_method            'lammps2cif' 
_symmetry_space_group_name_H-M    'P1' 
_symmetry_Int_Tables_number       1 
_symmetry_cell_setting            triclinic 
loop_ 
_symmetry_equiv_pos_as_xyz 
  x,y,z 
_cell_length_a                    40.06462452 
_cell_length_b                    40.20088396474223 
_cell_length_c                    39.99087468940938 
_cell_angle_alpha                 89.79500346283695 
_cell_angle_beta                  89.93224768098044 
_cell_angle_gamma                 89.883050416536 
loop_ 
_atom_site_label 
_atom_site_type_symbol 
_atom_site_fract_x 
_atom_site_fract_y 
_atom_site_fract_z 
_atom_site_charge 
O1          O  0.73659730  0.41961464  0.58042757    -0.85700
O2          O  0.76188927  0.46799863  0.53680071    -0.82700
C3          C  0.78121805  0.49073918  0.52714099     0.97800
O4          O  0.81254392  0.48821596  0.53295954    -0.82800
O5          O  0.82910209  0.48696348  0.60151483    -0.85400
C6          C  0.83755165  0.47776757  0.63048406     1.02300
O7          O  0.83103793  0.44823815  0.63959755    -0.78200
O8          O  0.76288892  0.43906703  0.62438557    -0.78400
C9          C  0.73618086  0.42955308  0.61095221     1.02300
O10         O  0.78600649  0.37500921  0.54841909    -0.85700
O11         O  0.80630818  0.41831496  0.50408418    -0.82700
C12         C  0.83807935  0.41569911  0.50443738     0.97800
O13         O  0.85434283  0.42833356  0.52789107    -0.82800
O14         O  0.87277310  0.43011130  0.59174405    -0.85400
C15         C  0.86992555  0.39994025  0.60111243     1.02300
O16         O  0.84196578  0.38693807  0.60630321    -0.78200
O17         O  0.77572675  0.37204386  0.60142893    -0.78300
C18         C  0.77624677  0.35850064  0.57280149     1.02200
Cr19       Cr  0.77465883  0.42141253  0.54467877     1.93700
Cr20       Cr  0.83943265  0.45706792  0.56417717     1.93200
Cr21       Cr  0.80286434  0.41322346  0.61504504     1.39100
O22         O  0.80548671  0.43122541  0.57448353    -1.23400
O23         O  0.52547465  0.79364150  0.41922680    -0.85700
O24         O  0.47806505  0.81659511  0.46552195    -0.82700
C25         C  0.46684490  0.83519973  0.48819204     0.97800
O26         O  0.47177086  0.86649131  0.48629925    -0.82800
O27         O  0.54011553  0.88514130  0.48956523    -0.85400
C28         C  0.56936463  0.89408258  0.48154278     1.02300
O29         O  0.57942427  0.88895216  0.45182675    -0.78200
O30         O  0.56915909  0.82121200  0.43782651    -0.78400
C31         C  0.55608474  0.79416843  0.42903058     1.02300
O32         O  0.49342281  0.83988891  0.37172935    -0.85700
O33         O  0.44715675  0.86090682  0.41361541    -0.82700
C34         C  0.44737908  0.89263345  0.41080053     0.97800
O35         O  0.46899163  0.90910083  0.42619071    -0.82800
O36         O  0.53132676  0.92946022  0.43450990    -0.85400
C37         C  0.54125079  0.92901508  0.40450492     1.02300
O38         O  0.54716630  0.90221893  0.38944331    -0.78200
O39         O  0.54728192  0.83550648  0.37112839    -0.78300
C40         C  0.51938012  0.83223077  0.35646515     1.02200
Cr41       Cr  0.48824909  0.82999572  0.41900796     1.93700
Cr42       Cr  0.50372117  0.89450772  0.45756373     1.93200
Cr43       Cr  0.55758272  0.86192269  0.41399969     1.39100
O44         O  0.51649666  0.86169441  0.43091334    -1.23400
O45         O  0.37404565  0.57697472  0.79494783    -0.85700
O46         O  0.42174115  0.53506768  0.82276065    -0.82700
C47         C  0.44250522  0.52309259  0.84303323     0.97800
O48         O  0.43870292  0.52856693  0.87426408    -0.82800
O49         O  0.43786434  0.59825155  0.88841714    -0.85400
C50         C  0.42807831  0.62717361  0.89631576     1.02300
O51         O  0.39831583  0.63596260  0.88946071    -0.78200
O52         O  0.38774582  0.62312162  0.82123613    -0.78400
C53         C  0.38204564  0.60794972  0.79433943     1.02300
O54         O  0.32695546  0.54361177  0.84085826    -0.85700
O55         O  0.37033315  0.50193461  0.86567252    -0.82700
C56         C  0.36389746  0.50392616  0.89694678     0.97800
O57         O  0.37651537  0.52691299  0.91374839    -0.82800
O58         O  0.38147443  0.59014641  0.93160958    -0.85400
C59         C  0.35110207  0.59870101  0.92918198     1.02300
O60         O  0.33699340  0.60116133  0.90123832    -0.78200
O61         O  0.32240172  0.59673026  0.83339974    -0.78300
C62         C  0.31015729  0.56767485  0.83105181     1.02200
Cr63       Cr  0.37436638  0.54167427  0.83308518     1.93700
Cr64       Cr  0.40745245  0.56148277  0.89906996     1.93200
Cr65       Cr  0.36293198  0.61131750  0.86152622     1.39100
O66         O  0.38232199  0.57159439  0.86413045    -1.23400
O67         O  0.67765982  0.68614542  0.44855437    -0.85700
O68         O  0.68913593  0.72095031  0.50496988    -0.82700
C69         C  0.68925492  0.72844152  0.53558916     0.97800
O70         O  0.69410138  0.70585035  0.55674199    -0.82800
O71         O  0.63047204  0.68231187  0.54653328    -0.85400
C72         C  0.60684530  0.66761054  0.53183013     1.02300
O73         O  0.61115014  0.63884661  0.51920031    -0.78200
O74         O  0.63262898  0.65781464  0.46056346    -0.78400
C75         C  0.64609036  0.68238527  0.44688267     1.02300
O76         O  0.73043111  0.63613805  0.47312323    -0.85700
O77         O  0.74185455  0.67375034  0.52565581    -0.82700
C78         C  0.74312005  0.65082044  0.54768720     0.97800
O79         O  0.71686614  0.63964192  0.56116390    -0.82800
O80         O  0.65208682  0.61795570  0.56511048    -0.85400
C81         C  0.65840105  0.59041281  0.55181611     1.02300
O82         O  0.66525524  0.58881061  0.52144709    -0.78200
O83         O  0.68610273  0.60777756  0.46089415    -0.78300
C84         C  0.71688852  0.60834481  0.46798884     1.02200
Cr85       Cr  0.70765926  0.67771677  0.48874211     1.93700
Cr86       Cr  0.67358748  0.66096616  0.55451393     1.93200
Cr87       Cr  0.65090832  0.62507599  0.49157800     1.39100
O88         O  0.67741770  0.65460000  0.51113070    -1.23400
O89         O  0.39172824  0.72609346  0.67957653    -0.85700
O90         O  0.44700211  0.73657721  0.71672685    -0.82700
C91         C  0.47747510  0.73720145  0.72473046     0.97800
O92         O  0.49879175  0.74408811  0.70264752    -0.82800
O93         O  0.49302249  0.68238037  0.67293836    -0.85400
C94         C  0.48089495  0.65907853  0.65564703     1.02300
O95         O  0.46626899  0.66496678  0.62807214    -0.78200
O96         O  0.40776989  0.68182287  0.65266488    -0.78400
C97         C  0.39381953  0.69456554  0.67760651     1.02300
O98         O  0.41499692  0.78184463  0.63335268    -0.85700
O99         O  0.46598936  0.79314442  0.67370997    -0.82700
C100        C  0.48724897  0.79719436  0.65046460     0.97800
O101        O  0.50197308  0.77262566  0.63752022    -0.82800
O102        O  0.50884378  0.71093129  0.61018557    -0.85400
C103        C  0.49414153  0.71563909  0.58275321     1.02300
O104        O  0.46340787  0.72105099  0.58193630    -0.78200
O105        O  0.40235556  0.73795622  0.60481439    -0.78300
C106        C  0.40901636  0.76876632  0.60539313     1.02200
Cr107      Cr  0.43073635  0.75747663  0.67425156     1.93700
Cr108      Cr  0.49783602  0.72766564  0.65544944     1.93200
Cr109      Cr  0.43568660  0.70359120  0.61876398     1.39100
O110        O  0.45447302  0.72959597  0.64940433    -1.23400
O111        O  0.64525490  0.45444019  0.73423960    -0.85700
O112        O  0.66342979  0.51065274  0.76411148    -0.82700
C113        C  0.67161558  0.53569133  0.74630126     0.97800
O114        O  0.65011746  0.55131142  0.72960377    -0.82800
O115        O  0.60749304  0.54488643  0.67856535    -0.85400
C116        C  0.61644181  0.52065258  0.66012909     1.02300
O117        O  0.60996745  0.49101088  0.66754478    -0.78200
O118        O  0.60154390  0.43777813  0.70823360    -0.78400
C119        C  0.63285640  0.43813727  0.71074783     1.02300
O120        O  0.57948015  0.45489527  0.77463665    -0.85700
O121        O  0.60146962  0.50935882  0.80184021    -0.82700
C122        C  0.59302221  0.53922942  0.80204461     0.97800
O123        O  0.59620122  0.55771004  0.77672356    -0.82800
O124        O  0.55264560  0.54898758  0.72838718    -0.85400
C125        C  0.53734934  0.54155676  0.70234221     1.02300
O126        O  0.54783558  0.51757986  0.68523428    -0.78200
O127        O  0.54370919  0.47162278  0.73640733    -0.78300
C128        C  0.54969674  0.46345652  0.76633408     1.02200
Cr129      Cr  0.62104058  0.48311305  0.76611951     1.93700
Cr130      Cr  0.60149390  0.54754959  0.72852580     1.93200
Cr131      Cr  0.57740532  0.48071322  0.70206616     1.39100
O132        O  0.60081061  0.50402023  0.73242544    -1.23400
O133        O  0.51639890  0.49977013  0.22856263    -0.85700
O134        O  0.56679258  0.45844700  0.25476360    -0.82700
C135        C  0.55864395  0.42752527  0.25566012     0.97800
O136        O  0.54978676  0.41339679  0.22917840    -0.82800
O137        O  0.53832126  0.39790934  0.16268648    -0.85400
C138        C  0.50780525  0.40452263  0.15703418     1.02300
O139        O  0.49688201  0.43360570  0.16283489    -0.78200
O140        O  0.49575447  0.50383402  0.17805436    -0.78400
C141        C  0.49390023  0.51044864  0.20929876     1.02300
O142        O  0.56512412  0.53263999  0.18282979    -0.85700
O143        O  0.61064195  0.49136025  0.20510292    -0.82700
C144        C  0.62828911  0.46784963  0.21488066     0.97800
O145        O  0.61571127  0.43884546  0.21465065    -0.82800
O146        O  0.59838098  0.43346632  0.14779375    -0.85400
C147        C  0.58354976  0.43626075  0.12025330     1.02300
O148        O  0.55275268  0.44363604  0.11867324    -0.78200
O149        O  0.55611361  0.50726535  0.13544720    -0.78300
C150        C  0.56942177  0.53063075  0.15122656     1.02200
Cr151      Cr  0.56345664  0.49325473  0.21589724     1.93700
Cr152      Cr  0.57392906  0.42372517  0.18841968     1.93200
Cr153      Cr  0.52675949  0.47168231  0.15178230     1.39100
O154        O  0.55384044  0.46284959  0.18574579    -1.23400
O155        O  0.44026258  0.22303632  0.57035760    -0.85700
O156        O  0.40023640  0.25135317  0.62143637    -0.82700
C157        C  0.36932689  0.25201909  0.61343702     0.97800
O158        O  0.35567685  0.22593896  0.60324918    -0.82800
O159        O  0.33883876  0.16052329  0.59191815    -0.85400
C160        C  0.34702539  0.15338841  0.56212313     1.02300
O161        O  0.37689379  0.15753234  0.55252105    -0.78200
O162        O  0.44691387  0.17146507  0.55411649    -0.78400
C163        C  0.45254073  0.20245109  0.55004482     1.02300
O164        O  0.47384322  0.17987331  0.62009837    -0.85700
O165        O  0.43311559  0.20497810  0.66605904    -0.82700
C166        C  0.40811240  0.21221761  0.68317504     0.97800
O167        O  0.37913274  0.21053618  0.67030359    -0.82800
O168        O  0.37055207  0.14492264  0.65375311    -0.85400
C169        C  0.37350585  0.11730705  0.63947943     1.02300
O170        O  0.38334314  0.11508280  0.60947884    -0.78200
O171        O  0.44749836  0.13239139  0.61620019    -0.78300
C172        C  0.47178010  0.14888159  0.62689726     1.02200
Cr173      Cr  0.43447899  0.21266376  0.61816438     1.93700
Cr174      Cr  0.36391568  0.18544492  0.62834163     1.93200
Cr175      Cr  0.41322950  0.14710199  0.58450507     1.39100
O176        O  0.40386392  0.18186734  0.60999132    -1.23400
O177        O  0.16436211  0.56114481  0.50842087    -0.85700
O178        O  0.19551686  0.60905638  0.46763905    -0.82700
C179        C  0.19544241  0.60034775  0.43688254     0.97800
O180        O  0.16849154  0.59226402  0.42339661    -0.82800
O181        O  0.10261906  0.58525376  0.40660131    -0.85400
C182        C  0.09409602  0.55575661  0.41451041     1.02300
O183        O  0.09648772  0.54629089  0.44479080    -0.78200
O184        O  0.11182389  0.54773156  0.51526912    -0.78400
C185        C  0.14272213  0.54222577  0.52100453     1.02300
O186        O  0.12444522  0.61426348  0.54168239    -0.85700
O187        O  0.15148091  0.65663751  0.50034003    -0.82700
C188        C  0.16067978  0.67315787  0.47572081     0.97800
O189        O  0.15849555  0.66041235  0.44665717    -0.82800
O190        O  0.09134891  0.64837306  0.43881838    -0.85400
C191        C  0.06270246  0.63611335  0.44164727     1.02300
O192        O  0.05848055  0.60631816  0.45126250    -0.78200
O193        O  0.07669281  0.61225713  0.51541422    -0.78300
C194        C  0.09408128  0.62356891  0.53889447     1.02200
Cr195      Cr  0.15679248  0.60897442  0.50216778     1.93700
Cr196      Cr  0.13001182  0.62020402  0.43170729     1.93200
Cr197      Cr  0.08892154  0.57927881  0.48133608     1.39100
O198        O  0.12540548  0.60222402  0.47168422    -1.23400
O199        O  0.20712111  0.40457082  0.58875106    -0.85700
O200        O  0.18794403  0.38633610  0.52932582    -0.82700
C201        C  0.18987399  0.39357859  0.49907643     0.97800
O202        O  0.21682885  0.39091333  0.48301446    -0.82800
O203        O  0.25928728  0.43979575  0.49890034    -0.85400
C204        C  0.28280613  0.45650647  0.51062501     1.02300
O205        O  0.29778033  0.44625893  0.53633562    -0.78200
O206        O  0.24433262  0.44338628  0.57863732    -0.78400
C207        C  0.21432850  0.43518286  0.58350840     1.02300
O208        O  0.25066549  0.34201226  0.58904651    -0.85700
O209        O  0.22822344  0.32652299  0.52828199    -0.82700
C210        C  0.25055777  0.31967575  0.50665136     0.97800
O211        O  0.26894209  0.34227331  0.49482897    -0.82800
O212        O  0.31374298  0.39148326  0.50602796    -0.85400
C213        C  0.33112969  0.38281227  0.53116062     1.02300
O214        O  0.31974446  0.38406069  0.56043385    -0.78200
O215        O  0.27364966  0.38534710  0.61066723    -0.78300
C216        C  0.27176993  0.35419894  0.60850213     1.02200
Cr217      Cr  0.22108302  0.36642892  0.55832613     1.93700
Cr218      Cr  0.26400486  0.39097864  0.49896546     1.93200
Cr219      Cr  0.28151683  0.41296540  0.56995288     1.39100
O220        O  0.25541104  0.38950530  0.54222174    -1.23400
O221        O  0.52495571  0.27042541  0.41541965    -0.85700
O222        O  0.46646069  0.25122851  0.39607233    -0.82700
C223        C  0.43591540  0.25302253  0.40172465     0.97800
O224        O  0.41973362  0.27952933  0.39673242    -0.82800
O225        O  0.43347952  0.32113577  0.44603405    -0.85400
C226        C  0.44453116  0.34348497  0.46454643     1.02300
O227        O  0.47008116  0.35953504  0.45570986    -0.78200
O228        O  0.51314552  0.30713587  0.45405292    -0.78400
C229        C  0.51828987  0.27731123  0.44596316     1.02300
O230        O  0.52675082  0.31363853  0.35221979    -0.85700
O231        O  0.46670857  0.29051521  0.33478390    -0.82700
C232        C  0.44584127  0.31319243  0.32678027     0.97800
O233        O  0.43374489  0.33201372  0.34875774    -0.82800
O234        O  0.44240417  0.37634056  0.39859516    -0.85400
C235        C  0.46804383  0.39308702  0.39047503     1.02300
O236        O  0.49690512  0.38180835  0.39401848    -0.78200
O237        O  0.54677730  0.33773356  0.39603650    -0.78300
C238        C  0.54528679  0.33545651  0.36459271     1.02200
Cr239      Cr  0.49566716  0.28397319  0.37604528     1.93700
Cr240      Cr  0.43555402  0.32667688  0.39757576     1.93200
Cr241      Cr  0.50525464  0.34419549  0.42317496     1.39100
O242        O  0.47871703  0.31821423  0.39828882    -1.23400
O243        O  0.35480151  0.58037125  0.27425213    -0.85700
O244        O  0.33984391  0.52237045  0.25361580    -0.82700
C245        C  0.34620043  0.49209512  0.25480431     0.97800
O246        O  0.33895498  0.47515956  0.28041952    -0.82800
O247        O  0.38869390  0.49105895  0.32214801    -0.85400
C248        C  0.40675504  0.50323801  0.34454889     1.02300
O249        O  0.39585029  0.52686022  0.36216156    -0.78200
O250        O  0.39198140  0.57242797  0.31340490    -0.78400
C251        C  0.38525066  0.57533301  0.28282066     1.02300
O252        O  0.28988542  0.57786466  0.31593735    -0.85700
O253        O  0.27683358  0.51723176  0.29131270    -0.82700
C254        C  0.26913718  0.49646952  0.31442261     0.97800
O255        O  0.29127445  0.48578043  0.33422088    -0.82800
O256        O  0.34273333  0.49412000  0.37834083    -0.85400
C257        C  0.33273897  0.51770444  0.39682058     1.02300
O258        O  0.33191916  0.54711670  0.38624539    -0.78200
O259        O  0.33134841  0.59922528  0.34286033    -0.78300
C260        C  0.30036823  0.59575168  0.33930400     1.02200
Cr261      Cr  0.31652923  0.54905645  0.28626111     1.93700
Cr262      Cr  0.34023106  0.48969639  0.32827482     1.93200
Cr263      Cr  0.36087981  0.55992992  0.34890905     1.39100
O264        O  0.33863307  0.53288632  0.32109771    -1.23400
O265        O  0.96361160  0.32587253  0.45948402    -0.85700
O266        O  0.90247421  0.29652789  0.43840639    -0.82700
C267        C  0.87170002  0.29610976  0.42980363     0.97800
O268        O  0.85849149  0.32143768  0.41601655    -0.82800
O269        O  0.84866972  0.37780879  0.45754934    -0.85400
C270        C  0.85897043  0.39998956  0.47762358     1.02300
O271        O  0.88917353  0.40921635  0.47674389    -0.78200
O272        O  0.93801234  0.36109113  0.49234507    -0.78400
C273        C  0.95757224  0.33651819  0.48876456     1.02300
O274        O  0.96843735  0.35832949  0.39176289    -0.85700
O275        O  0.91418605  0.31922309  0.37376966    -0.82700
C276        C  0.90165460  0.33940667  0.35343945     0.97800
O277        O  0.88693908  0.36496935  0.36463692    -0.82800
O278        O  0.87542985  0.41795361  0.40713494    -0.85400
C279        C  0.90109842  0.43583947  0.40558045     1.02300
O280        O  0.92774461  0.42818354  0.42009771    -0.78200
O281        O  0.97703605  0.38601729  0.43712734    -0.78300
C282        C  0.98277764  0.38236870  0.40629118     1.02200
Cr283      Cr  0.93574032  0.32797371  0.41717894     1.93700
Cr284      Cr  0.87082560  0.36958720  0.41269508     1.93200
Cr285      Cr  0.93120133  0.39365945  0.45490820     1.39100
O286        O  0.91171135  0.36328281  0.42925342    -1.23400
O287        O  0.00957616  0.03717368  0.82008082    -0.85700
O288        O  0.05810313  0.08011655  0.79459991    -0.82700
C289        C  0.04950707  0.11088077  0.79497510     0.97800
O290        O  0.04325509  0.12512459  0.82229572    -0.82800
O291        O  0.03231557  0.13597908  0.89116737    -0.85400
C292        C  0.00257963  0.12699535  0.89769258     1.02300
O293        O  0.99305759  0.09835437  0.88885059    -0.78200
O294        O  0.99185986  0.02987630  0.87132322    -0.78400
C295        C  0.98819412  0.02531652  0.83990949     1.02300
O296        O  0.06117729  0.00284409  0.86169448    -0.85700
O297        O  0.10448063  0.04510817  0.83938724    -0.82700
C298        C  0.12261497  0.06997436  0.83658847     0.97800
O299        O  0.10930944  0.09866371  0.83561351    -0.82800
O300        O  0.09384397  0.10029027  0.90077204    -0.85400
C301        C  0.08101493  0.09464788  0.92870307     1.02300
O302        O  0.05027814  0.08750641  0.93149802    -0.78200
O303        O  0.05415624  0.02584055  0.91059690    -0.78300
C304        C  0.06788180  0.00424322  0.89284599     1.02200
Cr305      Cr  0.05713435  0.04360389  0.83094648     1.93700
Cr306      Cr  0.06780467  0.11219763  0.86229730     1.93200
Cr307      Cr  0.02345933  0.06103451  0.89766505     1.39100
O308        O  0.04867001  0.07237203  0.86315985    -1.23400
O309        O  0.66464150  0.96972668  0.53616126    -0.85700
O310        O  0.68942633  0.92139195  0.58140212    -0.82700
C311        C  0.68970902  0.93139128  0.61188618     0.97800
O312        O  0.66313610  0.94207144  0.62480444    -0.82800
O313        O  0.59561592  0.95551297  0.63839207    -0.85400
C314        C  0.58930103  0.98474025  0.62774315     1.02300
O315        O  0.59661498  0.99221056  0.59783880    -0.78200
O316        O  0.61357284  0.98810088  0.52901714    -0.78400
C317        C  0.64500114  0.99107750  0.52394721     1.02300
O318        O  0.62013379  0.91974873  0.50486246    -0.85700
O319        O  0.64023114  0.87694990  0.55026273    -0.82700
C320        C  0.64945353  0.86093012  0.57521536     0.97800
O321        O  0.64835450  0.87487625  0.60372055    -0.82800
O322        O  0.58171923  0.89246839  0.60844343    -0.85400
C323        C  0.55425410  0.90678044  0.60356781     1.02300
O324        O  0.55275100  0.93627794  0.59229303    -0.78200
O325        O  0.57194369  0.92717804  0.52927575    -0.78300
C326        C  0.58876213  0.91423065  0.50631767     1.02200
Cr327      Cr  0.65164937  0.92328159  0.54543994     1.93700
Cr328      Cr  0.62221562  0.91764652  0.61589284     1.93200
Cr329      Cr  0.58656565  0.95959961  0.56266891     1.39100
O330        O  0.62050216  0.93430032  0.57475271    -1.23400
O331        O  0.69755349  0.13507979  0.46971683    -0.85700
O332        O  0.68545293  0.17451857  0.52092718    -0.82700
C333        C  0.68222668  0.15127037  0.54223851     0.97800
O334        O  0.70719188  0.13906314  0.55714298    -0.82800
O335        O  0.77033959  0.11431227  0.56431827    -0.85400
C336        C  0.76570874  0.08679438  0.55027110     1.02300
O337        O  0.75992315  0.08542628  0.51957303    -0.78200
O338        O  0.74181795  0.10608923  0.45828861    -0.78400
C339        C  0.71078353  0.10708657  0.46455829     1.02300
O340        O  0.75227166  0.18233882  0.44649159    -0.85700
O341        O  0.74048609  0.21844469  0.50175223    -0.82700
C342        C  0.73944416  0.22618445  0.53225353     0.97800
O343        O  0.73292805  0.20412371  0.55353529    -0.82800
O344        O  0.79569616  0.17759165  0.54725673    -0.85400
C345        C  0.81947060  0.16178173  0.53394550     1.02300
O346        O  0.81468989  0.13351433  0.52058770    -0.78200
O347        O  0.79701742  0.15550835  0.46171409    -0.78300
C348        C  0.78390475  0.18062680  0.44846548     1.02200
Cr349      Cr  0.72092192  0.17603846  0.48550086     1.93700
Cr350      Cr  0.75140016  0.15830747  0.55277064     1.93200
Cr351      Cr  0.77620738  0.12192279  0.49075181     1.39100
O352        O  0.74945714  0.15198071  0.50932589    -1.23400
O353        O  0.00649080  0.27980999  0.63377142    -0.85700
O354        O  0.95469434  0.28616635  0.67403824    -0.82700
C355        C  0.93352006  0.28774178  0.65050983     0.97800
O356        O  0.92107105  0.26151377  0.63846583    -0.82800
O357        O  0.92117953  0.19841198  0.61270440    -0.85400
C358        C  0.93466721  0.20513194  0.58509117     1.02300
O359        O  0.96444886  0.21412936  0.58364735    -0.78200
O360        O  0.02329046  0.23750616  0.60477991    -0.78400
C361        C  0.01349322  0.26746720  0.60570360     1.02300
O362        O  0.03573967  0.22787309  0.68003840    -0.85700
O363        O  0.97966001  0.23338841  0.71791000    -0.82700
C364        C  0.94923687  0.23189301  0.72608640     0.97800
O365        O  0.92733799  0.23499785  0.70384091    -0.82800
O366        O  0.94042245  0.17305987  0.67555306    -0.85400
C367        C  0.95393076  0.15088356  0.65758461     1.02300
O368        O  0.96854901  0.15825763  0.63031116    -0.78200
O369        O  0.02519756  0.18186895  0.65341284    -0.78300
C370        C  0.03711663  0.19634281  0.67838186     1.02200
Cr371      Cr  0.99360434  0.25469036  0.67492397     1.93700
Cr372      Cr  0.93031435  0.21744541  0.65730080     1.93200
Cr373      Cr  0.99441089  0.19996267  0.61999698     1.39100
O374        O  0.97311792  0.22400703  0.65076790    -1.23400
O375        O  0.84656649  0.95756761  0.77712893    -0.85700
O376        O  0.82364164  0.01299062  0.80037787    -0.82700
C377        C  0.83277565  0.04253850  0.79965434     0.97800
O378        O  0.83156363  0.05983173  0.77338409    -0.82800
O379        O  0.87736703  0.04679214  0.72762137    -0.85400
C380        C  0.89350040  0.03699606  0.70282825     1.02300
O381        O  0.88201930  0.01346119  0.68571697    -0.78200
O382        O  0.88281213  0.96872325  0.73728519    -0.78400
C383        C  0.87663350  0.96431762  0.76795944     1.02300
O384        O  0.78115578  0.95571064  0.73455596    -0.85700
O385        O  0.76374105  0.01428340  0.76010166    -0.82700
C386        C  0.75729755  0.03910544  0.74117285     0.97800
O387        O  0.77994997  0.05296044  0.72440506    -0.82800
O388        O  0.82496755  0.04329574  0.67545182    -0.85400
C389        C  0.81460053  0.01912969  0.65781740     1.02300
O390        O  0.81876064  0.98940625  0.66664046    -0.78200
O391        O  0.82425129  0.93679973  0.70888795    -0.78300
C392        C  0.79301177  0.93825155  0.71158667     1.02200
Cr393      Cr  0.80528208  0.98556899  0.76534011     1.93700
Cr394      Cr  0.82843440  0.04744238  0.72555583     1.93200
Cr395      Cr  0.85016455  0.97853582  0.70224536     1.39100
O396        O  0.82716798  0.00405131  0.73127632    -1.23400
O397        O  0.56263086  0.08703258  0.74581319    -0.85700
O398        O  0.51435399  0.04124004  0.72282994    -0.82700
C399        C  0.49301343  0.02859635  0.70355917     0.97800
O400        O  0.49600123  0.03237348  0.67207335    -0.82800
O401        O  0.49028014  0.10009164  0.65420419    -0.85400
C402        C  0.49750662  0.12959028  0.64578930     1.02300
O403        O  0.52706062  0.14023426  0.65055365    -0.78200
O404        O  0.54316239  0.13034664  0.71830796    -0.78400
C405        C  0.55347523  0.11767660  0.74525025     1.02300
O406        O  0.60791233  0.05434273  0.69888088    -0.85700
O407        O  0.56487740  0.00905273  0.67885055    -0.82700
C408        C  0.56951319  0.00969087  0.64721034     0.97800
O409        O  0.55587109  0.03195261  0.62998281    -0.82800
O410        O  0.54491623  0.09369044  0.60888720    -0.85400
C411        C  0.57474845  0.10374985  0.60899686     1.02300
O412        O  0.59004822  0.10923126  0.63580725    -0.78200
O413        O  0.60955210  0.10819870  0.70223682    -0.78300
C414        C  0.62368442  0.08004207  0.70576059     1.02200
Cr415      Cr  0.56097985  0.05011600  0.70945951     1.93700
Cr416      Cr  0.52329956  0.06522513  0.64421469     1.93200
Cr417      Cr  0.56607580  0.11906257  0.67677716     1.39100
O418        O  0.54942917  0.07824058  0.67730876    -1.23400
O419        O  0.19227236  0.92366052  0.96057441    -0.85700
O420        O  0.16803641  0.97007755  0.00690141    -0.82700
C421        C  0.14946898  0.99389319  0.01579306     0.97800
O422        O  0.11856665  0.99333510  0.00802553    -0.82800
O423        O  0.10155434  0.99124501  0.93930116    -0.85400
C424        C  0.09107100  0.98161941  0.91119754     1.02300
O425        O  0.09703978  0.95197526  0.90230991    -0.78200
O426        O  0.16616605  0.93993461  0.91458927    -0.78400
C427        C  0.19293038  0.93290137  0.92975599     1.02300
O428        O  0.14497498  0.87653001  0.99214090    -0.85700
O429        O  0.12327771  0.91847377  0.03639441    -0.82700
C430        C  0.09146210  0.91850821  0.03634206     0.97800
O431        O  0.07578846  0.93466512  0.01458978    -0.82800
O432        O  0.05650125  0.93625313  0.95148891    -0.85400
C433        C  0.05821653  0.90576468  0.94339434     1.02300
O434        O  0.08560086  0.89179329  0.93740494    -0.78200
O435        O  0.15146962  0.87434471  0.93852897    -0.78300
C436        C  0.14991225  0.85970458  0.96656146     1.02200
Cr437      Cr  0.15508756  0.92359236  0.99654188     1.93700
Cr438      Cr  0.09113518  0.96231549  0.97757935     1.93200
Cr439      Cr  0.12523192  0.91643995  0.92638116     1.39100
O440        O  0.12424111  0.93486979  0.96699730    -1.23400
O441        O  0.40997381  0.29481623  0.09926392    -0.85700
O442        O  0.47005710  0.32851023  0.08085398    -0.82700
C443        C  0.46451970  0.34039968  0.05193507     0.97800
O444        O  0.44512329  0.36542683  0.04911184    -0.82800
O445        O  0.39212114  0.40915311  0.06839803    -0.85400
C446        C  0.36243614  0.39818327  0.06665123     1.02300
O447        O  0.35342339  0.37376947  0.08484119    -0.78200
O448        O  0.36601192  0.31673101  0.12473979    -0.78400
C449        C  0.37942121  0.29330179  0.10839264     1.02300
O450        O  0.41997886  0.31422156  0.16520850    -0.85700
O451        O  0.47293165  0.35561884  0.14952168    -0.82700
C452        C  0.48680289  0.38115648  0.13718580     0.97800
O453        O  0.48121629  0.38819722  0.10696345    -0.82800
O454        O  0.42938453  0.42546884  0.12801272    -0.85400
C455        C  0.40201042  0.43034584  0.14263465     1.02300
O456        O  0.37691403  0.41315417  0.13604372    -0.78200
O457        O  0.39339388  0.35968140  0.17651289    -0.78300
C458        C  0.40955680  0.33445835  0.18652249     1.02200
Cr459      Cr  0.44179261  0.32611214  0.12248439     1.93700
Cr460      Cr  0.43519372  0.39460057  0.08938818     1.93200
Cr461      Cr  0.37580192  0.36497918  0.12925795     1.39100
O462        O  0.41677790  0.36128043  0.11220358    -1.23400
O463        O  0.53138859  0.23624805  0.84237135    -0.85700
O464        O  0.47299760  0.26270525  0.82551773    -0.82700
C465        C  0.44869036  0.24355403  0.81830984     0.97800
O466        O  0.43457619  0.22642197  0.84052768    -0.82800
O467        O  0.44273130  0.17754317  0.88531344    -0.85400
C468        C  0.46676411  0.16021715  0.87392715     1.02300
O469        O  0.49660157  0.16789487  0.87910966    -0.78200
O470        O  0.54964590  0.20842455  0.88460975    -0.78400
C471        C  0.54818171  0.21235614  0.85337254     1.02300
O472        O  0.52986878  0.27651343  0.90872974    -0.85700
O473        O  0.47455550  0.30072468  0.88708743    -0.82700
C474        C  0.44468723  0.30020586  0.89543201     0.97800
O475        O  0.42686928  0.27473661  0.89218299    -0.82800
O476        O  0.43900626  0.22885698  0.93807539    -0.85400
C477        C  0.44802676  0.20349770  0.95367779     1.02300
O478        O  0.47202765  0.18653533  0.94255999    -0.78200
O479        O  0.51806336  0.23643602  0.94428561    -0.78300
C480        C  0.52255046  0.26700974  0.93859973     1.02200
Cr481      Cr  0.50167903  0.26639939  0.86733404     1.93700
Cr482      Cr  0.43906987  0.22720762  0.88907514     1.93200
Cr483      Cr  0.50775520  0.20244945  0.91101130     1.39100
O484        O  0.48269708  0.23222967  0.88836756    -1.23400
O485        O  0.30943892  0.94851715  0.81519828    -0.85700
O486        O  0.26873560  0.00337612  0.81094632    -0.82700
C487        C  0.26009360  0.03363485  0.81200416     0.97800
O488        O  0.28160568  0.05573781  0.80702922    -0.82800
O489        O  0.31267613  0.04538471  0.86781613    -0.85400
C490        C  0.33127140  0.03229939  0.88978368     1.02300
O491        O  0.35913737  0.01927245  0.88195145    -0.78200
O492        O  0.33515378  0.96172757  0.86121492    -0.78400
C493        C  0.31090487  0.94809174  0.84689761     1.02300
O494        O  0.35154704  0.97821403  0.76110836    -0.85700
O495        O  0.30884394  0.02842928  0.75519290    -0.82700
C496        C  0.33160572  0.05008981  0.75198670     0.97800
O497        O  0.34493087  0.06316613  0.77729288    -0.82800
O498        O  0.37334942  0.06492910  0.83921971    -0.85400
C499        C  0.40037702  0.05300142  0.82883634     1.02300
O500        O  0.40282788  0.02245675  0.82297356    -0.78200
O501        O  0.38122438  0.96171295  0.80342510    -0.78300
C502        C  0.37961398  0.97031302  0.77295191     1.02200
Cr503      Cr  0.31107931  0.99027598  0.78760679     1.93700
Cr504      Cr  0.32856411  0.05464007  0.82251008     1.93200
Cr505      Cr  0.36779251  0.99214458  0.84055868     1.39100
O506        O  0.33581625  0.01203444  0.81689351    -1.23400
O507        O  0.25041315  0.20176468  0.08318448    -0.85700
O508        O  0.22359485  0.21419397  0.02397951    -0.82700
C509        C  0.24453673  0.22252694  0.00144997     0.97800
O510        O  0.26406344  0.20135249  0.98882792    -0.82800
O511        O  0.31302202  0.15473386  0.99631251    -0.85400
C512        C  0.33221090  0.16404954  0.01972948     1.02300
O513        O  0.32284409  0.16356660  0.04974269    -0.78200
O514        O  0.27989294  0.16143632  0.10218147    -0.78400
C515        C  0.27645315  0.19226433  0.09756324     1.02300
O516        O  0.21265308  0.13441124  0.08530599    -0.85700
O517        O  0.18873131  0.15117379  0.02824463    -0.82700
C518        C  0.18932762  0.14461787  0.99792645     0.97800
O519        O  0.21485194  0.14996589  0.98025197    -0.82800
O520        O  0.26154102  0.10385213  0.99400179    -0.85400
C521        C  0.28611249  0.08775164  0.00487486     1.02300
O522        O  0.30282134  0.09925760  0.02884273    -0.78200
O523        O  0.25297564  0.09930285  0.07461907    -0.78300
C524        C  0.22217371  0.10469524  0.07856400     1.02200
Cr525      Cr  0.22161070  0.17397400  0.05468037     1.93700
Cr526      Cr  0.26291406  0.15264591  0.99309720     1.93200
Cr527      Cr  0.28711832  0.13258054  0.06268792     1.39100
O528        O  0.25714278  0.15375551  0.03667527    -1.23400
O529        O  0.02506048  0.74736993  0.62166689    -0.85700
O530        O  0.98103709  0.71788507  0.57676958    -0.82700
C531        C  0.97119816  0.69730636  0.55530698     0.97800
O532        O  0.97798520  0.66638847  0.55908974    -0.82800
O533        O  0.04657986  0.65407594  0.55528381    -0.85400
C534        C  0.07612792  0.64631423  0.56264728     1.02300
O535        O  0.08722881  0.65497999  0.59118302    -0.78200
O536        O  0.06989600  0.72304317  0.60098095    -0.78400
C537        C  0.05435153  0.74924955  0.60868623     1.02300
O538        O  0.99844997  0.70001233  0.67123095    -0.85700
O539        O  0.95368585  0.67361432  0.62927136    -0.82700
C540        C  0.95631316  0.64219105  0.63364727     0.97800
O541        O  0.98056699  0.62680139  0.62149719    -0.82800
O542        O  0.04524350  0.61218567  0.61400836    -0.85400
C543        C  0.05851329  0.61701551  0.64247488     1.02300
O544        O  0.05755121  0.64500714  0.65586505    -0.78200
O545        O  0.05154628  0.71072297  0.66969395    -0.78300
C546        C  0.02405485  0.71020426  0.68563165     1.02200
Cr547      Cr  0.99177936  0.70769476  0.62362737     1.93700
Cr548      Cr  0.01289725  0.64268991  0.58886771     1.93200
Cr549      Cr  0.06370404  0.68328106  0.62799589     1.39100
O550        O  0.02263540  0.67822915  0.61281729    -1.23400
O551        O  0.86647269  0.95470439  0.25391894    -0.85700
O552        O  0.91599939  0.99659483  0.22866449    -0.82700
C553        C  0.93799238  0.00855570  0.20966784     0.97800
O554        O  0.93620839  0.00303843  0.17820648    -0.82800
O555        O  0.93635645  0.93313393  0.16104515    -0.85400
C556        C  0.92576548  0.90416297  0.15447075     1.02300
O557        O  0.89542424  0.89695862  0.16035475    -0.78200
O558        O  0.88264676  0.90966362  0.22742253    -0.78400
C559        C  0.87499791  0.92381169  0.25431328     1.02300
O560        O  0.82227808  0.98936161  0.20564141    -0.85700
O561        O  0.86665486  0.03073009  0.18387810    -0.82700
C562        C  0.86192043  0.02896821  0.15230411     0.97800
O563        O  0.87591720  0.00632313  0.13603709    -0.82800
O564        O  0.88016904  0.94355080  0.11729786    -0.85400
C565        C  0.84932609  0.93646223  0.11905719     1.02300
O566        O  0.83498614  0.93259568  0.14663318    -0.78200
O567        O  0.81698663  0.93621788  0.21215149    -0.78300
C568        C  0.80397880  0.96503962  0.21076467     1.02200
Cr569      Cr  0.86918123  0.99054099  0.21610461     1.93700
Cr570      Cr  0.90586475  0.97098726  0.15120651     1.93200
Cr571      Cr  0.85925845  0.92165842  0.18667021     1.39100
O572        O  0.87901958  0.96094587  0.18512796    -1.23400
O573        O  0.23572208  0.09494992  0.46723631    -0.85700
O574        O  0.27139797  0.07693408  0.52647445    -0.82700
C575        C  0.28420970  0.04875155  0.52005473     0.97800
O576        O  0.30816050  0.04691499  0.49916640    -0.82800
O577        O  0.34989357  0.06505136  0.44509083    -0.85400
C578        C  0.33684869  0.06186099  0.41638414     1.02300
O579        O  0.31201574  0.07997106  0.40801976    -0.78200
O580        O  0.25552996  0.12070112  0.42236815    -0.78400
C581        C  0.23279862  0.10424802  0.43684600     1.02300
O582        O  0.25533147  0.16093149  0.47589211    -0.85700
O583        O  0.29782503  0.14564648  0.52791468    -0.82700
C584        C  0.32417836  0.13384927  0.54067789     0.97800
O585        O  0.33211494  0.10422841  0.53431695    -0.82800
O586        O  0.36721550  0.12562498  0.48045842    -0.85400
C587        C  0.37108981  0.13897829  0.45216891     1.02300
O588        O  0.35261450  0.13135735  0.42825015    -0.78200
O589        O  0.29973275  0.17232277  0.44701620    -0.78300
C590        C  0.27514824  0.18222909  0.46437191     1.02200
Cr591      Cr  0.26787727  0.11845614  0.49772181     1.93700
Cr592      Cr  0.33684300  0.08677129  0.48822566     1.93200
Cr593      Cr  0.30426487  0.12493499  0.42978150     1.39100
O594        O  0.30240119  0.10872849  0.47125092    -1.23400
O595        O  0.18061112  0.84123363  0.59549846    -0.85700
O596        O  0.20879851  0.81829877  0.53778785    -0.82700
C597        C  0.18803564  0.80791382  0.51579926     0.97800
O598        O  0.16668592  0.82720640  0.50348915    -0.82800
O599        O  0.12294953  0.87758800  0.49960561    -0.85400
C600        C  0.10433262  0.86931732  0.52392681     1.02300
O601        O  0.11107640  0.87822906  0.55304901    -0.78200
O602        O  0.15144801  0.88507328  0.60542949    -0.78400
C603        C  0.15376816  0.85367967  0.60562673     1.02300
O604        O  0.22066016  0.90619559  0.58821614    -0.85700
O605        O  0.24589823  0.87972525  0.53436666    -0.82700
C606        C  0.24720014  0.87517536  0.50362751     0.97800
O607        O  0.22122890  0.86796001  0.48735669    -0.82800
O608        O  0.17953915  0.92201973  0.48940914    -0.85400
C609        C  0.15734026  0.94273659  0.49692314     1.02300
O610        O  0.13778505  0.93670954  0.52112348    -0.78200
O611        O  0.18304574  0.94156413  0.56984829    -0.78300
C612        C  0.21278093  0.93538747  0.57755089     1.02200
Cr613      Cr  0.21128297  0.86278034  0.56333608     1.93700
Cr614      Cr  0.17287933  0.87458228  0.49807074     1.93200
Cr615      Cr  0.14795057  0.90857346  0.56158548     1.39100
O616        O  0.17744806  0.88148472  0.54112853    -1.23400
O617        O  0.89510018  0.80653395  0.36664332    -0.85700
O618        O  0.95025699  0.80572823  0.32643463    -0.82700
C619        C  0.98033809  0.81087156  0.31826485     0.97800
O620        O  0.00282799  0.80590233  0.33961996    -0.82800
O621        O  0.98970479  0.86382625  0.37423648    -0.85400
C622        C  0.97674215  0.88374810  0.39493908     1.02300
O623        O  0.96297928  0.87330739  0.42158796    -0.78200
O624        O  0.90650176  0.85161004  0.39465224    -0.78400
C625        C  0.89312504  0.83798446  0.36984994     1.02300
O626        O  0.92710067  0.75196827  0.40806593    -0.85700
O627        O  0.97789958  0.75001683  0.36557602    -0.82700
C628        C  0.99909979  0.74731955  0.38896881     0.97800
O629        O  0.01173925  0.77288906  0.40193775    -0.82800
O630        O  0.01017168  0.83200493  0.43396545    -0.85400
C631        C  0.99786966  0.82029601  0.46046844     1.02300
O632        O  0.96750229  0.81278269  0.46186432    -0.78200
O633        O  0.90746638  0.79225209  0.43806070    -0.78300
C634        C  0.91753311  0.76242269  0.43616951     1.02200
Cr635      Cr  0.93816113  0.78046044  0.36823887     1.93700
Cr636      Cr  0.00091241  0.81811293  0.38766005     1.93200
Cr637      Cr  0.93708195  0.83077444  0.42704328     1.39100
O638        O  0.95844313  0.80980746  0.39420692    -1.23400
O639        O  0.14026289  0.08264063  0.30907389    -0.85700
O640        O  0.15256096  0.02397043  0.28117236    -0.82700
C641        C  0.16185239  0.00070993  0.30086980     0.97800
O642        O  0.14134372  0.98713748  0.32046795    -0.82800
O643        O  0.10073097  0.99529587  0.37317342    -0.85400
C644        C  0.11185738  0.01903422  0.39089196     1.02300
O645        O  0.10723406  0.04899351  0.38304617    -0.78200
O646        O  0.10010858  0.10060397  0.33935173    -0.78400
C647        C  0.13103303  0.09678298  0.33527355     1.02300
O648        O  0.07125999  0.08413830  0.27635279    -0.85700
O649        O  0.08669011  0.02744395  0.25004233    -0.82700
C650        C  0.07881129  0.99748063  0.25083772     0.97800
O651        O  0.08497822  0.97953623  0.27600859    -0.82800
O652        O  0.04385108  0.99232862  0.32668434    -0.85400
C653        C  0.03030331  0.00189316  0.35313514     1.02300
O654        O  0.04281038  0.02582304  0.36891922    -0.78200
O655        O  0.03781927  0.07091802  0.31754284    -0.78300
C656        C  0.04208487  0.07603026  0.28667263     1.02200
Cr657      Cr  0.11143746  0.05381122  0.28183379     1.93700
Cr658      Cr  0.09273584  0.99178292  0.32368141     1.93200
Cr659      Cr  0.07339176  0.06053063  0.34971822     1.39100
O660        O  0.09340325  0.03518860  0.31836157    -1.23400
O661        O  0.96675343  0.82722554  0.07917274    -0.85700
O662        O  0.02873950  0.79772797  0.09925356    -0.82700
C663        C  0.05900898  0.79731625  0.10940660     0.97800
O664        O  0.07116338  0.82247059  0.12408743    -0.82800
O665        O  0.08038223  0.87805874  0.08075363    -0.85400
C666        C  0.07010735  0.90139343  0.06174944     1.02300
O667        O  0.03988623  0.91110936  0.06312550    -0.78200
O668        O  0.98825748  0.86498675  0.04595791    -0.78400
C669        C  0.97019253  0.83918515  0.04994221     1.02300
O670        O  0.96223163  0.85679396  0.14665938    -0.85700
O671        O  0.01712669  0.82019897  0.16405323    -0.82700
C672        C  0.02493208  0.84280824  0.18396756     0.97800
O673        O  0.04094983  0.86764777  0.17305580    -0.82800
O674        O  0.05530120  0.91927957  0.12952359    -0.85400
C675        C  0.02929025  0.93500764  0.13653975     1.02300
O676        O  0.00208573  0.92807031  0.12267013    -0.78200
O677        O  0.95198816  0.88826048  0.10375305    -0.78300
C678        C  0.94710965  0.88143955  0.13417498     1.02200
Cr679      Cr  0.99500568  0.82825654  0.12080629     1.93700
Cr680      Cr  0.05872871  0.87071874  0.12565315     1.93200
Cr681      Cr  0.99754436  0.89577993  0.08516664     1.39100
O682        O  0.01793379  0.86420408  0.10890538    -1.23400
O683        O  0.26392095  0.46633604  0.01254945    -0.85700
O684        O  0.23998069  0.42148594  0.96408360    -0.82700
C685        C  0.24046239  0.43118372  0.93333167     0.97800
O686        O  0.26759283  0.44034300  0.92002048    -0.82800
O687        O  0.33699397  0.45046975  0.90761019    -0.85400
C688        C  0.34241138  0.48022558  0.91638367     1.02300
O689        O  0.33213050  0.48939104  0.94473289    -0.78200
O690        O  0.31308703  0.49023245  0.01246509    -0.78400
C691        C  0.28221025  0.49068165  0.02005142     1.02300
O692        O  0.30866204  0.41353841  0.04072837    -0.85700
O693        O  0.28607747  0.37305645  0.99488049    -0.82700
C694        C  0.27787131  0.35837662  0.96884191     0.97800
O695        O  0.27997363  0.37365980  0.94120662    -0.82800
O696        O  0.34668400  0.38945882  0.94244378    -0.85400
C697        C  0.37396446  0.40304999  0.94960660     1.02300
O698        O  0.37580556  0.43350761  0.95759163    -0.78200
O699        O  0.35586356  0.43224959  0.02032512    -0.78300
C700        C  0.34048521  0.41499050  0.04138450     1.02200
Cr701      Cr  0.27689674  0.42024074  0.00080663     1.93700
Cr702      Cr  0.30776024  0.41518647  0.93098765     1.93200
Cr703      Cr  0.34115556  0.45969631  0.98301451     1.39100
O704        O  0.30823535  0.43239922  0.97191222    -1.23400
O705        O  0.91876149  0.52813775  0.72329966    -0.85700
O706        O  0.87233997  0.57305202  0.75220335    -0.82700
C707        C  0.88249123  0.60334554  0.75190951     0.97800
O708        O  0.89172016  0.61623104  0.72479351    -0.82800
O709        O  0.90190243  0.63116495  0.65780335    -0.85400
C710        C  0.93118157  0.62099053  0.65111790     1.02300
O711        O  0.93862704  0.59078138  0.65644437    -0.78200
O712        O  0.93431358  0.52173216  0.67108256    -0.78400
C713        C  0.93935572  0.51702548  0.70223302     1.02300
O714        O  0.86505460  0.49867014  0.68137956    -0.85700
O715        O  0.82354464  0.54293196  0.70750024    -0.82700
C716        C  0.80836647  0.56899181  0.71488778     0.97800
O717        O  0.82317568  0.59683499  0.71249331    -0.82800
O718        O  0.83765960  0.60224376  0.64561277    -0.85400
C719        C  0.85089386  0.59823158  0.61745582     1.02300
O720        O  0.88038745  0.58700922  0.61462294    -0.78200
O721        O  0.87165160  0.52397538  0.63321544    -0.78300
C722        C  0.85873373  0.50109591  0.65011990     1.02200
Cr723      Cr  0.87129679  0.53790940  0.71388210     1.93700
Cr724      Cr  0.86493358  0.60853931  0.68512532     1.93200
Cr725      Cr  0.90486608  0.55638200  0.64683742     1.39100
O726        O  0.88076519  0.56750463  0.68216563    -1.23400
O727        O  0.23092161  0.63637681  0.06759851    -0.85700
O728        O  0.23890414  0.67476442  0.01424198    -0.82700
C729        C  0.24171539  0.65078821  0.99383692     0.97800
O730        O  0.21631135  0.63782615  0.98068356    -0.82800
O731        O  0.15505279  0.60927662  0.97917836    -0.85400
C732        C  0.16233472  0.58291034  0.99470266     1.02300
O733        O  0.16850811  0.58347975  0.02534519    -0.78200
O734        O  0.18763079  0.60909888  0.08475705    -0.78400
C735        C  0.21807660  0.60906530  0.07618855     1.02300
O736        O  0.17622709  0.68249941  0.09246184    -0.85700
O737        O  0.18313215  0.71773684  0.03508180    -0.82700
C738        C  0.18189122  0.72465281  0.00429390     0.97800
O739        O  0.18733587  0.70211532  0.98325351    -0.82800
O740        O  0.12615571  0.67205428  0.99435998    -0.85400
C741        C  0.10411610  0.65426360  0.00821394     1.02300
O742        O  0.11160269  0.62748321  0.02325826    -0.78200
O743        O  0.13081852  0.65565325  0.07960518    -0.78300
C744        C  0.14451704  0.68058899  0.09235606     1.02200
Cr745      Cr  0.20535760  0.67629105  0.05169144     1.93700
Cr746      Cr  0.17147059  0.65512961  0.98716482     1.93200
Cr747      Cr  0.15161350  0.62074690  0.05233312     1.39100
O748        O  0.17624227  0.65065155  0.03063594    -1.23400
O749        O  0.90393388  0.77032274  0.90968762    -0.85700
O750        O  0.95935244  0.79587839  0.88977095    -0.82700
C751        C  0.98937294  0.79676704  0.89761713     0.97800
O752        O  0.00791704  0.77154054  0.89546981    -0.82800
O753        O  0.99543422  0.72671889  0.94379858    -0.85400
C754        C  0.98602939  0.70175939  0.96005653     1.02300
O755        O  0.96262556  0.68422202  0.94888571    -0.78200
O756        O  0.91481777  0.73167253  0.94679142    -0.78400
C757        C  0.91065430  0.76205162  0.93999836     1.02300
O758        O  0.90695308  0.72759483  0.84449051    -0.85700
O759        O  0.96475080  0.75650298  0.82987844    -0.82700
C760        C  0.98948431  0.73765786  0.82322895     0.97800
O761        O  0.00321192  0.72043034  0.84579656    -0.82800
O762        O  0.99607352  0.67328633  0.89445590    -0.85400
C763        C  0.97344088  0.65346263  0.88481396     1.02300
O764        O  0.94308913  0.66141838  0.88531952    -0.78200
O765        O  0.88773303  0.70053933  0.88675426    -0.78300
C766        C  0.89047819  0.70349209  0.85557112     1.02200
Cr767      Cr  0.93421444  0.75994447  0.86997542     1.93700
Cr768      Cr  0.99732061  0.72327012  0.89472285     1.93200
Cr769      Cr  0.92840459  0.69715982  0.91506075     1.39100
O770        O  0.95351734  0.72697767  0.89259399    -1.23400
O771        O  0.07978458  0.45081242  0.77266232    -0.85700
O772        O  0.10198600  0.50598512  0.74680911    -0.82700
C773        C  0.10589101  0.53663507  0.74548995     0.97800
O774        O  0.11414273  0.55314437  0.77122168    -0.82800
O775        O  0.06563656  0.55305741  0.82093689    -0.85400
C776        C  0.04639574  0.54287303  0.84355546     1.02300
O777        O  0.05233251  0.51604451  0.85890460    -0.78200
O778        O  0.04515234  0.47060178  0.80964944    -0.78400
C779        C  0.05087976  0.46259313  0.77974754     1.02300
O780        O  0.14673512  0.44732377  0.80950366    -0.85700
O781        O  0.16636078  0.50379733  0.77823251    -0.82700
C782        C  0.17829886  0.52446897  0.79914178     0.97800
O783        O  0.16066573  0.53576040  0.82222296    -0.82800
O784        O  0.11488978  0.53839222  0.87037597    -0.85400
C785        C  0.12092073  0.51330046  0.88870883     1.02300
O786        O  0.11178914  0.48464291  0.88058430    -0.78200
O787        O  0.10359450  0.43356161  0.83875560    -0.78300
C788        C  0.13497698  0.43298645  0.83473075     1.02200
Cr789      Cr  0.12245070  0.47766220  0.77957349     1.93700
Cr790      Cr  0.11298038  0.54181578  0.82051023     1.93200
Cr791      Cr  0.07984189  0.47711684  0.84447073     1.39100
O792        O  0.10518331  0.49908891  0.81471883    -1.23400
O793        O  0.69105171  0.61697515  0.08479701    -0.85700
O794        O  0.66667837  0.56840479  0.03923371    -0.82700
C795        C  0.64692916  0.54667058  0.02805552     0.97800
O796        O  0.61562063  0.54991632  0.03265165    -0.82800
O797        O  0.59668883  0.54670231  0.10090138    -0.85400
C798        C  0.58893079  0.55506337  0.13044495     1.02300
O799        O  0.59526986  0.58454110  0.14007701    -0.78200
O800        O  0.66330645  0.59786089  0.12814545    -0.78400
C801        C  0.69028126  0.60806335  0.11566880     1.02300
O802        O  0.64538943  0.66285161  0.05129795    -0.85700
O803        O  0.62376620  0.61969170  0.00684772    -0.82700
C804        C  0.59232970  0.62485673  0.00795941     0.97800
O805        O  0.57511127  0.61076769  0.02996474    -0.82800
O806        O  0.55401005  0.60285904  0.09198508    -0.85400
C807        C  0.55549124  0.63301325  0.10057210     1.02300
O808        O  0.58268594  0.64684967  0.10712914    -0.78200
O809        O  0.64807395  0.66475286  0.10554180    -0.78300
C810        C  0.65051705  0.67912192  0.07725942     1.02200
Cr811      Cr  0.65447831  0.61542666  0.04787202     1.93700
Cr812      Cr  0.58844547  0.57902071  0.06446213     1.93200
Cr813      Cr  0.62249157  0.62190097  0.11728652     1.39100
O814        O  0.62224036  0.60473144  0.07657562    -1.23400
O815        O  0.90166190  0.24390543  0.92786090    -0.85700
O816        O  0.94492350  0.21883860  0.97654496    -0.82700
C817        C  0.95778275  0.19933512  0.99757512     0.97800
O818        O  0.95344016  0.16804716  0.99431176    -0.82800
O819        O  0.88462906  0.15051428  0.99375222    -0.85400
C820        C  0.85598049  0.14130472  0.98439017     1.02300
O821        O  0.84700761  0.14718199  0.95439839    -0.78200
O822        O  0.85752425  0.21536934  0.94350033    -0.78400
C823        C  0.87079290  0.24283998  0.93656770     1.02300
O824        O  0.93740592  0.19968936  0.88178540    -0.85700
O825        O  0.98014466  0.17743284  0.92515438    -0.82700
C826        C  0.97917162  0.14616440  0.91942089     0.97800
O827        O  0.95715633  0.12870883  0.93290976    -0.82800
O828        O  0.89517482  0.10781641  0.93679685    -0.85400
C829        C  0.88778951  0.11029193  0.90601152     1.02300
O830        O  0.88296110  0.13800024  0.89257965    -0.78200
O831        O  0.88372482  0.20332008  0.87683379    -0.78300
C832        C  0.91260312  0.20350716  0.86360713     1.02200
Cr833      Cr  0.93886142  0.20797412  0.92906643     1.93700
Cr834      Cr  0.92190301  0.14161884  0.96328698     1.93200
Cr835      Cr  0.87056792  0.17612999  0.91855887     1.39100
O836        O  0.91043096  0.17565110  0.93765278    -1.23400
O837        O  0.04306264  0.46779568  0.29317050    -0.85700
O838        O  0.02412376  0.52348366  0.33158362    -0.82700
C839        C  0.99453429  0.51679960  0.34063587     0.97800
O840        O  0.98996187  0.49483491  0.36333479    -0.82800
O841        O  0.00546023  0.43644135  0.40311017    -0.85400
C842        C  0.00456974  0.40805497  0.38934486     1.02300
O843        O  0.02298314  0.40230647  0.36401357    -0.78200
O844        O  0.06581102  0.42048954  0.31023884    -0.78400
C845        C  0.05028755  0.43728724  0.28840476     1.02300
O846        O  0.10905761  0.47429545  0.31696428    -0.85700
O847        O  0.09036742  0.52253521  0.36365400    -0.82700
C848        C  0.07648982  0.53393703  0.38980453     0.97800
O849        O  0.04638742  0.52650539  0.39548979    -0.82800
O850        O  0.06371720  0.46943643  0.42723656    -0.85400
C851        C  0.07736340  0.44123927  0.42993333     1.02300
O852        O  0.07339118  0.41925028  0.40821659    -0.78200
O853        O  0.11692127  0.44016894  0.35840219    -0.78300
C854        C  0.12889651  0.45872806  0.33565385     1.02200
Cr855      Cr  0.06542085  0.49492058  0.32907920     1.93700
Cr856      Cr  0.02784498  0.48041751  0.39435403     1.93200
Cr857      Cr  0.06853884  0.42428823  0.35976028     1.39100
O858        O  0.05292122  0.46597898  0.36055255    -1.23400
O859        O  0.78705353  0.58787789  0.23713858    -0.85700
O860        O  0.77124600  0.53136459  0.26669341    -0.82700
C861        C  0.76343457  0.50493419  0.25104108     0.97800
O862        O  0.78488818  0.48843960  0.23519839    -0.82800
O863        O  0.82240532  0.49691656  0.18022174    -0.85400
C864        C  0.81101320  0.52053245  0.16215547     1.02300
O865        O  0.81707274  0.55065263  0.16834749    -0.78200
O866        O  0.82838507  0.60492348  0.20786745    -0.78400
C867        C  0.79737781  0.60407586  0.21248411     1.02300
O868        O  0.85609008  0.58638478  0.27309285    -0.85700
O869        O  0.83502659  0.53264399  0.30171447    -0.82700
C870        C  0.84630198  0.50373346  0.30132607     0.97800
O871        O  0.84329889  0.48511909  0.27636920    -0.82800
O872        O  0.88182327  0.49512232  0.22459995    -0.85400
C873        C  0.89394189  0.50310214  0.19706064     1.02300
O874        O  0.88078073  0.52638248  0.18086494    -0.78200
O875        O  0.88883900  0.57183452  0.23153002    -0.78300
C876        C  0.88509807  0.57749848  0.26241139     1.02200
Cr877      Cr  0.81359445  0.55886228  0.26709999     1.93700
Cr878      Cr  0.83304432  0.49465537  0.22923526     1.93200
Cr879      Cr  0.85230678  0.56226908  0.20002391     1.39100
O880        O  0.83201234  0.53832672  0.23234097    -1.23400
O881        O  0.75242987  0.35521192  0.95137205    -0.85700
O882        O  0.74485025  0.31699890  0.00732292    -0.82700
C883        C  0.74615349  0.30838159  0.03774468     0.97800
O884        O  0.74443614  0.33048181  0.05982145    -0.82800
O885        O  0.80650611  0.35793638  0.04585988    -0.85400
C886        C  0.82836078  0.37527144  0.03099104     1.02300
O887        O  0.82118772  0.40392468  0.01950549    -0.78200
O888        O  0.79833492  0.38247994  0.96208629    -0.78400
C889        C  0.78406374  0.35775562  0.94962375     1.02300
O890        O  0.70033480  0.40209076  0.98016861    -0.85700
O891        O  0.69312577  0.36175773  0.03199778    -0.82700
C892        C  0.69212754  0.38467886  0.05370701     0.97800
O893        O  0.71858248  0.39574342  0.06673216    -0.82800
O894        O  0.78186219  0.42073269  0.06656650    -0.85400
C895        C  0.77220170  0.44801832  0.05450265     1.02300
O896        O  0.76468257  0.45020229  0.02419614    -0.78200
O897        O  0.74320032  0.43049726  0.96353871    -0.78300
C898        C  0.71287330  0.42975523  0.97223088     1.02200
Cr899      Cr  0.72481034  0.36053473  0.99324271     1.93700
Cr900      Cr  0.76249015  0.37661268  0.05697906     1.93200
Cr901      Cr  0.77989548  0.41492326  0.99340348     1.39100
O902        O  0.75570273  0.38388484  0.01413419    -1.23400
O903        O  0.01542706  0.31286282  0.19756956    -0.85700
O904        O  0.95469406  0.28858275  0.20761020    -0.82700
C905        C  0.93519971  0.31307583  0.21370256     0.97800
O906        O  0.92558956  0.33193697  0.19031570    -0.82800
O907        O  0.93387772  0.37114172  0.13487813    -0.85400
C908        C  0.95635586  0.39040223  0.14567385     1.02300
O909        O  0.98595195  0.38072833  0.14841354    -0.78200
O910        O  0.03788290  0.33945767  0.15634729    -0.78400
C911        C  0.03104255  0.33778237  0.18713571     1.02300
O912        O  0.02300982  0.26875108  0.13517764    -0.85700
O913        O  0.96367680  0.24836295  0.14745030    -0.82700
C914        C  0.93295089  0.24847729  0.14362935     0.97800
O915        O  0.91591064  0.27437652  0.14863867    -0.82800
O916        O  0.93345520  0.31135155  0.09464963    -0.85400
C917        C  0.94545874  0.33276982  0.07513810     1.02300
O918        O  0.96913117  0.35120815  0.08494488    -0.78200
O919        O  0.01672694  0.30539537  0.09526845    -0.78300
C920        C  0.01966247  0.27547557  0.10404873     1.02200
Cr921      Cr  0.98893513  0.28196226  0.17042101     1.93700
Cr922      Cr  0.93023558  0.32173443  0.14229298     1.93200
Cr923      Cr  0.00109538  0.34218219  0.12295981     1.39100
O924        O  0.97348878  0.31524774  0.14563228    -1.23400
O925        O  0.76517073  0.05999638  0.03841623    -0.85700
O926        O  0.73629821  0.10639922  0.08218596    -0.82700
C927        C  0.73587340  0.09674123  0.11284487     0.97800
O928        O  0.76277578  0.08870709  0.12696569    -0.82800
O929        O  0.83168087  0.08115829  0.14133878    -0.85400
C930        C  0.84085968  0.05234695  0.13171597     1.02300
O931        O  0.83432793  0.04351918  0.10208509    -0.78200
O932        O  0.81737150  0.04437426  0.03267659    -0.78400
C933        C  0.78633412  0.04015137  0.02636221     1.02300
O934        O  0.80582625  0.11292052  0.00639407    -0.85700
O935        O  0.78158309  0.15445925  0.05047744    -0.82700
C936        C  0.77286962  0.17088635  0.07528150     0.97800
O937        O  0.77296212  0.15679323  0.10387608    -0.82800
O938        O  0.83910765  0.14449285  0.10871988    -0.85400
C939        C  0.86776731  0.13354803  0.10310628     1.02300
O940        O  0.87272489  0.10361571  0.09426296    -0.78200
O941        O  0.85390755  0.10790506  0.03146587    -0.78300
C942        C  0.83680915  0.11995824  0.00828495     1.02200
Cr943      Cr  0.77422666  0.10724126  0.04673776     1.93700
Cr944      Cr  0.80175079  0.11604082  0.11735530     1.93200
Cr945      Cr  0.84155624  0.07585001  0.06575627     1.39100
O946        O  0.80549562  0.09877080  0.07669189    -1.23400
O947        O  0.40939287  0.00911798  0.32024952    -0.85700
O948        O  0.36462104  0.96526459  0.28953859    -0.82700
C949        C  0.37698856  0.93577166  0.28826321     0.97800
O950        O  0.38461227  0.92073579  0.31482717    -0.82800
O951        O  0.39401440  0.90293604  0.38207324    -0.85400
C952        C  0.42282949  0.91311237  0.39076438     1.02300
O953        O  0.43016693  0.94325020  0.38533743    -0.78200
O954        O  0.42641855  0.01225347  0.37228220    -0.78400
C955        C  0.43050469  0.01907013  0.34125729     1.02300
O956        O  0.35564495  0.03692420  0.36321112    -0.85700
O957        O  0.31445792  0.99296374  0.33516147    -0.82700
C958        C  0.30003944  0.96701783  0.32626406     0.97800
O959        O  0.31588472  0.93957263  0.32659519    -0.82800
O960        O  0.32933398  0.93353029  0.39263039    -0.85400
C961        C  0.34296319  0.93111542  0.42055438     1.02300
O962        O  0.37106078  0.94483458  0.42581848    -0.78200
O963        O  0.36370719  0.01073310  0.41076470    -0.78300
C964        C  0.35184384  0.03507393  0.39494947     1.02200
Cr965      Cr  0.36229505  0.99875917  0.32924810     1.93700
Cr966      Cr  0.35731317  0.92718371  0.35427385     1.93200
Cr967      Cr  0.39622966  0.97748977  0.39559740     1.39100
O968        O  0.37256732  0.96800821  0.35942901    -1.23400
O969        O  0.48097743  0.72143290  0.97436099    -0.85700
O970        O  0.52463423  0.74716672  0.92524245    -0.82700
C971        C  0.55582729  0.74711009  0.93269084     0.97800
O972        O  0.57041614  0.72019726  0.93990809    -0.82800
O973        O  0.58206033  0.65219067  0.95424314    -0.85400
C974        C  0.57296192  0.64631214  0.98424895     1.02300
O975        O  0.54404426  0.65508569  0.99347815    -0.78200
O976        O  0.47467703  0.67056954  0.99290759    -0.78400
C977        C  0.46907631  0.70166085  0.99584662     1.02300
O978        O  0.44871635  0.67829997  0.92310054    -0.85700
O979        O  0.49081372  0.70145264  0.87929757    -0.82700
C980        C  0.51580090  0.70492140  0.86115366     0.97800
O981        O  0.54461925  0.70461383  0.87441504    -0.82800
O982        O  0.54695796  0.63951187  0.89269798    -0.85400
C983        C  0.54205715  0.61216581  0.90693572     1.02300
O984        O  0.53522317  0.61069058  0.93784165    -0.78200
O985        O  0.47299139  0.63030624  0.93208784    -0.78300
C986        C  0.45079524  0.64702267  0.91788170     1.02200
Cr987      Cr  0.48868572  0.71007634  0.92686982     1.93700
Cr988      Cr  0.55814350  0.67924451  0.91713392     1.93200
Cr989      Cr  0.50738004  0.64470845  0.96274252     1.39100
O990        O  0.51816465  0.67860295  0.93634263    -1.23400
O991        O  0.71840939  0.90307727  0.95987947    -0.85700
O992        O  0.74100488  0.88396769  0.01734783    -0.82700
C993        C  0.74142833  0.88830788  0.04810057     0.97800
O994        O  0.71584537  0.88367621  0.06590823    -0.82800
O995        O  0.67491910  0.93599424  0.05509811    -0.85400
C996        C  0.65225017  0.95498140  0.04481399     1.02300
O997        O  0.63473191  0.94644746  0.02011134    -0.78200
O998        O  0.68259423  0.94221803  0.97271498    -0.78400
C999        C  0.71213145  0.93370430  0.96599543     1.02300
O1000       O  0.67356169  0.84101747  0.96231071    -0.85700
O1001       O  0.70074626  0.82458478  0.02119804    -0.82700
C1002       C  0.67907492  0.81694642  0.04325558     0.97800
O1003       O  0.66063888  0.83903724  0.05598626    -0.82800
O1004       O  0.61748279  0.89187847  0.05137772    -0.85400
C1005       C  0.59756651  0.88482308  0.02778875     1.02300
O1006       O  0.60694999  0.88552537  0.99780548    -0.78200
O1007       O  0.64778916  0.88469334  0.94378111    -0.78300
C1008       C  0.65038838  0.85344804  0.94531350     1.02200
Cr1009     Cr  0.70581107  0.86470884  0.99086282     1.93700
Cr1010     Cr  0.66763291  0.88762539  0.05373605     1.93200
Cr1011     Cr  0.64546071  0.91275610  0.98490026     1.39100
O1012       O  0.67303301  0.88783522  0.00991414    -1.23400
O1013       O  0.39784115  0.76612423  0.13387141    -0.85700
O1014       O  0.45384717  0.74026106  0.15320526    -0.82700
C1015       C  0.48342450  0.74044005  0.14365834     0.97800
O1016       O  0.50145995  0.76593774  0.14524690    -0.82800
O1017       O  0.48857244  0.81400919  0.10195246    -0.85400
C1018       C  0.48002143  0.84036537  0.08787211     1.02300
O1019       O  0.45615196  0.85679320  0.09988038    -0.78200
O1020       O  0.41072173  0.80561199  0.09801484    -0.78400
C1021       C  0.40506076  0.77526240  0.10385349     1.02300
O1022       O  0.39904845  0.80488733  0.20127780    -0.85700
O1023       O  0.45797986  0.77681466  0.21510109    -0.82700
C1024       C  0.48342181  0.79461699  0.22185993     0.97800
O1025       O  0.49741837  0.81177118  0.19953463    -0.82800
O1026       O  0.48691136  0.86290112  0.15742428    -0.85400
C1027       C  0.46305026  0.88036735  0.16912175     1.02300
O1028       O  0.43301819  0.87371459  0.16334005    -0.78200
O1029       O  0.38059874  0.83162057  0.15893802    -0.78300
C1030       C  0.38436183  0.83007501  0.19017585     1.02200
Cr1031     Cr  0.42771075  0.77471468  0.17437026     1.93700
Cr1032     Cr  0.49034571  0.81345333  0.15104932     1.93200
Cr1033     Cr  0.42126028  0.83940751  0.13148514     1.39100
O1034       O  0.44670130  0.80908905  0.15325150    -1.23400
O1035       O  0.57537725  0.06619625  0.28545646    -0.85700
O1036       O  0.61562835  0.01559140  0.29593170    -0.82700
C1037       C  0.59242868  0.99411721  0.29781540     0.97800
O1038       O  0.58270634  0.97864990  0.27226730    -0.82800
O1039       O  0.55853178  0.97399933  0.20917044    -0.85400
C1040       C  0.53074902  0.98533708  0.21827610     1.02300
O1041       O  0.52749555  0.01578272  0.22413974    -0.78200
O1042       O  0.54548499  0.07811044  0.24176622    -0.78400
C1043       C  0.54719323  0.07249547  0.27290232     1.02300
O1044       O  0.62162212  0.09146619  0.23056667    -0.85700
O1045       O  0.66061430  0.03725812  0.24131178    -0.82700
C1046       C  0.66935968  0.00706314  0.24218570     0.97800
O1047       O  0.64766068  0.98539623  0.24782364    -0.82800
O1048       O  0.62088391  0.99436766  0.18410419    -0.85400
C1049       C  0.60292130  0.00633371  0.16095640     1.02300
O1050       O  0.57413897  0.01835560  0.16710539    -0.78200
O1051       O  0.59367416  0.07749643  0.18591816    -0.78300
C1052       C  0.61889068  0.09060165  0.19885660     1.02200
Cr1053     Cr  0.61696038  0.05193326  0.26136559     1.93700
Cr1054     Cr  0.60206320  0.98582475  0.22847335     1.93200
Cr1055     Cr  0.56203676  0.04661353  0.20679564     1.39100
O1056       O  0.59367046  0.02858788  0.23228468    -1.23400
C1057       C  0.47102566  0.90863268  0.18989599    -0.05800
C1058       C  0.49314406  0.90336089  0.21626565    -0.33200
C1059       C  0.50882025  0.93016731  0.23111094     0.36000
C1060       C  0.50280979  0.96241057  0.21865861    -0.06200
C1061       C  0.47646279  0.96805909  0.19631845    -0.33100
C1062       C  0.46039041  0.94095282  0.18167319     0.35900
H1063       H  0.50043339  0.87834430  0.22341162     0.16300
O1064       O  0.53410222  0.92425585  0.25349725    -0.60600
H1065       H  0.47160989  0.99286809  0.18678979     0.16300
O1066       O  0.43733438  0.94622265  0.15687023    -0.60700
H1067       H  0.45039866  0.94711456  0.13579658     0.43300
H1068       H  0.52297594  0.91567363  0.27394397     0.43300
C1069       C  0.56298302  0.87645516  0.03569356    -0.05800
C1070       C  0.55083739  0.84489883  0.02751297    -0.33200
C1071       C  0.52078406  0.83372444  0.04123506     0.36000
C1072       C  0.50245905  0.85461861  0.06275999    -0.06200
C1073       C  0.51260226  0.88762379  0.06727746    -0.33100
C1074       C  0.54317704  0.89833772  0.05456022     0.35900
H1075       H  0.56596707  0.82796205  0.01286774     0.16300
O1076       O  0.51120591  0.80140540  0.03615492    -0.60600
H1077       H  0.49887601  0.90392828  0.08391619     0.16300
O1078       O  0.55429452  0.92962204  0.06211883    -0.60700
H1079       H  0.56443230  0.92761138  0.08465560     0.43300
H1080       H  0.49513353  0.80235054  0.01734036     0.43300
C1081       C  0.64178298  0.98272381  0.06616085    -0.05800
C1082       C  0.60741140  0.98899484  0.06893903    -0.33200
C1083       C  0.59395638  0.99931847  0.09940544     0.36000
C1084       C  0.61542149  0.00469380  0.12662300    -0.06200
C1085       C  0.65001934  0.00535269  0.12140140    -0.33100
C1086       C  0.66338216  0.99434142  0.09121056     0.35900
H1087       H  0.59053838  0.98150405  0.04924080     0.16300
O1088       O  0.55996260  0.99957801  0.10349509    -0.60600
H1089       H  0.66680156  0.01172575  0.14163861     0.16300
O1090       O  0.69738174  0.99215100  0.08743099    -0.60700
H1091       H  0.70503378  0.97607419  0.10468737     0.43300
H1092       H  0.55249629  0.02131207  0.09436347     0.43300
C1093       C  0.57749380  0.77736464  0.92983118    -0.05800
C1094       C  0.61096986  0.77272754  0.91987788    -0.33200
C1095       C  0.63414375  0.79871814  0.92068993     0.36000
C1096       C  0.62450826  0.83049428  0.93171253    -0.06200
C1097       C  0.59029933  0.83621709  0.93821671    -0.33100
C1098       C  0.56686794  0.80989700  0.93747196     0.35900
H1099       H  0.61968777  0.74829440  0.91249411     0.16300
O1100       O  0.66683422  0.79216810  0.91280652    -0.60600
H1101       H  0.58200460  0.86048181  0.94636605     0.16300
O1102       O  0.53455972  0.81566932  0.94720894    -0.60700
H1103       H  0.52399053  0.82731649  0.92804183     0.43300
H1104       H  0.66968901  0.80039612  0.88956777     0.43300
C1105       C  0.44724750  0.71621458  0.02323294    -0.05800
C1106       C  0.43272051  0.74758833  0.01748004    -0.33200
C1107       C  0.41486968  0.76462158  0.04231607     0.36000
C1108       C  0.41189092  0.75152307  0.07513788    -0.06200
C1109       C  0.42362711  0.71866642  0.08027838    -0.33100
C1110       C  0.44053720  0.70082846  0.05448178     0.35900
H1111       H  0.43571348  0.75967334  0.99340561     0.16300
O1112       O  0.40226940  0.79545877  0.03458555    -0.60600
H1113       H  0.42151397  0.70741200  0.10481212     0.16300
O1114       O  0.45237748  0.66944562  0.06096222    -0.60700
H1115       H  0.43232512  0.65505338  0.06201623     0.43300
H1116       H  0.38033482  0.79113903  0.02401355     0.43300
C1117       C  0.38063197  0.91581031  0.25702222    -0.05800
C1118       C  0.40784755  0.89404137  0.25602825    -0.33200
C1119       C  0.40803148  0.86619358  0.23542720     0.36000
C1120       C  0.38177181  0.86003038  0.21266448    -0.06200
C1121       C  0.35546489  0.88339247  0.21132621    -0.33100
C1122       C  0.35427194  0.91056997  0.23404589     0.35900
H1123       H  0.42830662  0.89712313  0.27348619     0.16300
O1124       O  0.43459446  0.84498529  0.23789996    -0.60600
H1125       H  0.33509097  0.87966833  0.19398311     0.16300
O1126       O  0.32650170  0.93052337  0.23485745    -0.60700
H1127       H  0.31100234  0.91950304  0.25075750     0.43300
H1128       H  0.42973692  0.83121564  0.25794878     0.43300
C1129       C  0.51590199  0.06832546  0.29386443    -0.05800
C1130       C  0.51787892  0.05804189  0.32777978    -0.33200
C1131       C  0.49007714  0.04390019  0.34470769     0.36000
C1132       C  0.45951562  0.03923816  0.32775726    -0.06200
C1133       C  0.45685392  0.05275225  0.29522646    -0.33100
C1134       C  0.48414121  0.06729141  0.27862237     0.35900
H1135       H  0.54169125  0.05861640  0.34055352     0.16300
O1136       O  0.49402230  0.03237469  0.37675576    -0.60600
H1137       H  0.43350757  0.05098520  0.28171989     0.16300
O1138       O  0.47980202  0.07800858  0.24633442    -0.60700
H1139       H  0.47334521  0.10175460  0.24823608     0.43300
H1140       H  0.48860978  0.05160123  0.39126065     0.43300
C1141       C  0.70505556  0.09853259  0.13413976    -0.05800
C1142       C  0.67297549  0.09739670  0.12019049    -0.33200
C1143       C  0.64427874  0.09797190  0.14073520     0.36000
C1144       C  0.64721575  0.09994628  0.17612873    -0.06200
C1145       C  0.67923400  0.10353065  0.18964488    -0.33100
C1146       C  0.70772442  0.10304250  0.16923952     0.35900
H1147       H  0.67006105  0.09513059  0.09336792     0.16300
O1148       O  0.61343396  0.09642090  0.12591364    -0.60600
H1149       H  0.68251464  0.10505853  0.21648029     0.16300
O1150       O  0.73827842  0.10655205  0.18424245    -0.60700
H1151       H  0.74189278  0.13091426  0.18572931     0.43300
H1152       H  0.61167386  0.07365665  0.11663762     0.43300
C1153       C  0.73837059  0.96053790  0.96986985    -0.05800
C1154       C  0.72742749  0.99376797  0.96791716    -0.33200
C1155       C  0.74431795  0.01961569  0.98415177     0.36000
C1156       C  0.77321644  0.01321377  0.00351327    -0.06200
C1157       C  0.78696761  0.98092805  0.00180604    -0.33100
C1158       C  0.77005824  0.95486055  0.98475737     0.35900
H1159       H  0.70390566  0.99952967  0.95583142     0.16300
O1160       O  0.73105427  0.05106093  0.98230858    -0.60600
H1161       H  0.80981883  0.97537481  0.01516180     0.16300
O1162       O  0.78379940  0.92366228  0.98478080    -0.60700
H1163       H  0.79979136  0.92363677  0.96583777     0.43300
H1164       H  0.74352537  0.06226604  0.96404996     0.43300
C1165       C  0.91782005  0.21775647  0.13263018    -0.05800
C1166       C  0.90769749  0.21510836  0.09935655    -0.33200
C1167       C  0.89561287  0.18496593  0.08743295     0.36000
C1168       C  0.89433770  0.15706528  0.10876238    -0.06200
C1169       C  0.90662658  0.15926944  0.14141505    -0.33100
C1170       C  0.91824243  0.18959438  0.15349176     0.35900
H1171       H  0.90862648  0.23653632  0.08284200     0.16300
O1172       O  0.88249752  0.18357830  0.05580265    -0.60600
H1173       H  0.90420206  0.13838545  0.15846902     0.16300
O1174       O  0.92866465  0.19188885  0.18606118    -0.60700
H1175       H  0.90893348  0.20002684  0.19865169     0.43300
H1176       H  0.85931043  0.19207138  0.05787459     0.43300
C1177       C  0.92621662  0.34042798  0.04481128    -0.05800
C1178       C  0.90154945  0.31729463  0.03595198    -0.33200
C1179       C  0.86930037  0.32831063  0.02916908     0.36000
C1180       C  0.86267233  0.36274115  0.02850715    -0.06200
C1181       C  0.88943891  0.38520173  0.02829462    -0.33100
C1182       C  0.92155372  0.37403767  0.03601207     0.35900
H1183       H  0.90543521  0.29098812  0.04067217     0.16300
O1184       O  0.84400644  0.30541211  0.02741073    -0.60600
H1185       H  0.88500454  0.41169510  0.02586589     0.16300
O1186       O  0.94636540  0.39692836  0.04088535    -0.60700
H1187       H  0.95961261  0.39666717  0.01993425     0.43300
H1188       H  0.83877261  0.30338792  0.00330591     0.43300
C1189       C  0.74974769  0.27284086  0.04825049    -0.05800
C1190       C  0.75497646  0.26437916  0.08228686    -0.33200
C1191       C  0.76107376  0.23121717  0.09234028     0.36000
C1192       C  0.76213924  0.20584307  0.06825836    -0.06200
C1193       C  0.75511919  0.21433558  0.03465617    -0.33100
C1194       C  0.74886137  0.24705534  0.02470991     0.35900
H1195       H  0.75516460  0.28362669  0.10116473     0.16300
O1196       O  0.76664358  0.22418925  0.12544115    -0.60600
H1197       H  0.75494821  0.19544041  0.01540272     0.16300
O1198       O  0.74255582  0.25346903  0.99162135    -0.60700
H1199       H  0.71828728  0.24964126  0.98878504     0.43300
H1200       H  0.79121891  0.22508458  0.12820871     0.43300
C1201       C  0.91860605  0.48129632  0.18167446     0.06200
C1202       C  0.91448175  0.47348422  0.14778054    -0.33200
C1203       C  0.92850889  0.44454202  0.13488277     0.36000
C1204       C  0.94764802  0.42394949  0.15577960    -0.06200
C1205       C  0.95533078  0.43394334  0.18834424    -0.33100
C1206       C  0.94051200  0.46235035  0.20162638     0.35900
H1207       H  0.89761693  0.48783755  0.13218593     0.16300
O1208       O  0.92160352  0.43543504  0.10261691    -0.60600
H1209       H  0.97047054  0.41822795  0.20435699     0.16300
O1210       O  0.94498100  0.46959769  0.23483334    -0.60700
H1211       H  0.96685760  0.48101816  0.23603289     0.43300
H1212       H  0.93821071  0.44745062  0.08871550     0.43300
C1213       C  0.79242042  0.51185627  0.13231719    -0.05800
C1214       C  0.80594131  0.51950622  0.10089524    -0.33200
C1215       C  0.79568806  0.50174126  0.07278342     0.36000
C1216       C  0.77169879  0.47658184  0.07654728    -0.06200
C1217       C  0.75479528  0.47267834  0.10695218    -0.33100
C1218       C  0.76535966  0.48993251  0.13504376     0.35900
H1219       H  0.82691256  0.53638107  0.09882225     0.16300
O1220       O  0.81274747  0.50548590  0.04327063    -0.60600
H1221       H  0.73613564  0.45337495  0.10984874     0.16300
O1222       O  0.75099257  0.48332605  0.16552478    -0.60700
H1223       H  0.76056735  0.46172052  0.17284816     0.43300
H1224       H  0.79815981  0.51964291  0.02910032     0.43300
C1225       C  0.04026269  0.41875449  0.25809983    -0.05800
C1226       C  0.06086601  0.41828598  0.22952726    -0.33200
C1227       C  0.05795377  0.39276753  0.20544045     0.36000
C1228       C  0.03534330  0.36637079  0.21063638    -0.06200
C1229       C  0.01362696  0.36823273  0.23835630    -0.33100
C1230       C  0.01587145  0.39395455  0.26168636     0.35900
H1231       H  0.08034472  0.43673725  0.22674287     0.16300
O1232       O  0.07850447  0.39297796  0.17803167    -0.60600
H1233       H  0.99475735  0.34937739  0.24237298     0.16300
O1234       O  0.99480544  0.39404042  0.28880741    -0.60700
H1235       H  0.00259594  0.37560449  0.30340589     0.43300
H1236       H  0.06611845  0.40571623  0.16073745     0.43300
C1237       C  0.96636058  0.53534544  0.32302753    -0.05800
C1238       C  0.97141510  0.54598034  0.28980668    -0.33200
C1239       C  0.94637714  0.56237656  0.27122258     0.36000
C1240       C  0.91448197  0.56902031  0.28524203    -0.06200
C1241       C  0.91018395  0.56074695  0.31941816    -0.33100
C1242       C  0.93569743  0.54429683  0.33815766     0.35900
H1243       H  0.99495594  0.54076321  0.27750984     0.16300
O1244       O  0.95351229  0.57158759  0.23891026    -0.60600
H1245       H  0.88648622  0.56576302  0.33140066     0.16300
O1246       O  0.93028964  0.53707024  0.37120955    -0.60700
H1247       H  0.93580991  0.55780150  0.38335961     0.43300
H1248       H  0.95302229  0.55068910  0.22579776     0.43300
C1249       C  0.84856794  0.27290757  0.93622552    -0.05800
C1250       C  0.86182122  0.30511372  0.93417774    -0.33200
C1251       C  0.84085472  0.33325738  0.93510135     0.36000
C1252       C  0.80565793  0.32971568  0.93787391    -0.06200
C1253       C  0.79240904  0.29753106  0.93738563    -0.33100
C1254       C  0.81323649  0.26948617  0.93694473     0.35900
H1255       H  0.88859844  0.30860334  0.93299876     0.16300
O1256       O  0.85533397  0.36413255  0.93518595    -0.60600
H1257       H  0.76571333  0.29387759  0.93954292     0.16300
O1258       O  0.79843264  0.23874294  0.93732576    -0.60700
H1259       H  0.79693941  0.23246333  0.96130870     0.43300
H1260       H  0.85590310  0.37112271  0.91138854     0.43300
C1261       C  0.01357734  0.25007751  0.07674352    -0.05800
C1262       C  0.01209514  0.26226587  0.04368570    -0.33200
C1263       C  0.99515721  0.24542210  0.01830445     0.36000
C1264       C  0.97933429  0.21456468  0.02458421    -0.06200
C1265       C  0.98404643  0.20012224  0.05651486    -0.33100
C1266       C  0.00101893  0.21755464  0.08240327     0.35900
H1267       H  0.02210381  0.28659868  0.03770360     0.16300
O1268       O  0.99309553  0.26046094  0.98750712    -0.60600
H1269       H  0.97318112  0.17606350  0.06197189     0.16300
O1270       O  0.00345444  0.20321557  0.11341815    -0.60700
H1271       H  0.02552032  0.19199675  0.11358598     0.43300
H1272       H  0.01169646  0.25087007  0.97428176     0.43300
C1273       C  0.52614989  0.65319939  0.10431395    -0.05800
C1274       C  0.52560798  0.68220122  0.08489798    -0.33200
C1275       C  0.51164408  0.71103857  0.09769622     0.36000
C1276       C  0.49661328  0.71021551  0.12934330    -0.06200
C1277       C  0.49322394  0.68011627  0.14677654    -0.33100
C1278       C  0.50841190  0.65147632  0.13451734     0.35900
H1279       H  0.53955730  0.68351635  0.06166939     0.16300
O1280       O  0.51315477  0.73995247  0.07943668    -0.60600
H1281       H  0.48097772  0.67943840  0.17095019     0.16300
O1282       O  0.51001706  0.62359532  0.15434389    -0.60700
H1283       H  0.49280056  0.60839249  0.14534501     0.43300
H1284       H  0.53583270  0.74894979  0.08344753     0.43300
C1285       C  0.67473683  0.78154843  0.05430880    -0.05800
C1286       C  0.65469113  0.77386185  0.08244032    -0.33200
C1287       C  0.64789810  0.74066184  0.09165515     0.36000
C1288       C  0.66107012  0.71435223  0.07268074    -0.06200
C1289       C  0.68187378  0.72202218  0.04531039    -0.33100
C1290       C  0.68899177  0.75496457  0.03629343     0.35900
H1291       H  0.64351222  0.79366460  0.09696611     0.16300
O1292       O  0.62711694  0.73433767  0.11818179    -0.60600
H1293       H  0.69218223  0.70217498  0.03017512     0.16300
O1294       O  0.70852937  0.76068824  0.00868657    -0.60700
H1295       H  0.73178969  0.76068415  0.01715120     0.43300
H1296       H  0.60449823  0.73228002  0.10833973     0.43300
C1297       C  0.77221970  0.61529336  0.18698993    -0.05800
C1298       C  0.73876417  0.61689160  0.19714979    -0.33200
C1299       C  0.71264491  0.61597321  0.17408426     0.36000
C1300       C  0.71909419  0.61276118  0.13933288    -0.06200
C1301       C  0.75255919  0.61490608  0.12865819    -0.33100
C1302       C  0.77900163  0.61648184  0.15217818     0.35900
H1303       H  0.73257030  0.61693576  0.22354373     0.16300
O1304       O  0.68062710  0.61727369  0.18625123    -0.60600
H1305       H  0.75833749  0.61404854  0.10221421     0.16300
O1306       O  0.81126853  0.61670035  0.14077870    -0.60700
H1307       H  0.81784876  0.64047095  0.14061736     0.43300
H1308       H  0.67479275  0.64126421  0.18661505     0.43300
C1309       C  0.66120473  0.51762740  0.00887097    -0.05800
C1310       C  0.69355889  0.51999085  0.99516555    -0.33200
C1311       C  0.70925577  0.49269397  0.97965246     0.36000
C1312       C  0.69332865  0.46134666  0.97843095    -0.06200
C1313       C  0.65999121  0.45964979  0.98989958    -0.33100
C1314       C  0.64384785  0.48740153  0.00438420     0.35900
H1315       H  0.70724866  0.54312063  0.99701072     0.16300
O1316       O  0.74114687  0.49658158  0.96781850    -0.60600
H1317       H  0.64678412  0.43617653  0.98925342     0.16300
O1318       O  0.61187726  0.48383596  0.01608130    -0.60700
H1319       H  0.59733950  0.48990158  0.99694781     0.43300
H1320       H  0.73850707  0.50566666  0.94487995     0.43300
C1321       C  0.98316983  0.62039053  0.87432112    -0.05800
C1322       C  0.99574528  0.59828563  0.89829160    -0.33200
C1323       C  0.01330740  0.57005201  0.88837871     0.36000
C1324       C  0.01907848  0.56457157  0.85410418    -0.06200
C1325       C  0.00360610  0.58508922  0.83019174    -0.33100
C1326       C  0.98560105  0.61301842  0.84020245     0.35900
H1327       H  0.99389790  0.60411143  0.92465387     0.16300
O1328       O  0.02831668  0.55059453  0.91229416    -0.60600
H1329       H  0.00762090  0.58096537  0.80375006     0.16300
O1330       O  0.97293948  0.63439562  0.81655271    -0.60700
H1331       H  0.99125149  0.65024212  0.81157000     0.43300
H1332       H  0.01143973  0.53356685  0.91827893     0.43300
C1333       C  0.13802858  0.51845683  0.92025081    -0.05800
C1334       C  0.12010138  0.51592416  0.95021129    -0.33200
C1335       C  0.13136651  0.53281998  0.97851686     0.36000
C1336       C  0.16066508  0.55190409  0.97633771    -0.06200
C1337       C  0.18119346  0.54943386  0.94814303    -0.33100
C1338       C  0.16989495  0.53284731  0.91992590     0.35900
H1339       H  0.09568041  0.50437834  0.95057801     0.16300
O1340       O  0.11144526  0.53441098  0.00641360    -0.60600
H1341       H  0.20376933  0.56416006  0.94636687     0.16300
O1342       O  0.18813640  0.53456009  0.89093466    -0.60700
H1343       H  0.20138556  0.51370032  0.89044036     0.43300
H1344       H  0.09444968  0.55168397  0.00135509     0.43300
C1345       C  0.06947637  0.66462237  0.00604670    -0.05800
C1346       C  0.06175647  0.69820930  0.01098959    -0.33200
C1347       C  0.03043902  0.71032201  0.00220258     0.36000
C1348       C  0.00754365  0.68894724  0.98665352    -0.06200
C1349       C  0.01328743  0.65448186  0.98723920    -0.33100
C1350       C  0.04449800  0.64220029  0.99643106     0.35900
H1351       H  0.08058014  0.71532991  0.01998745     0.16300
O1352       O  0.02387285  0.74361956  0.00520477    -0.60600
H1353       H  0.99551932  0.63751981  0.97616057     0.16300
O1354       O  0.05142621  0.60902401  0.99229555    -0.60700
H1355       H  0.05917704  0.60686218  0.96882173     0.43300
H1356       H  0.01942729  0.74717309  0.02933132     0.43300
C1357       C  0.87952287  0.62679446  0.78095590    -0.05800
C1358       C  0.87384694  0.66062843  0.77332433    -0.33200
C1359       C  0.87420126  0.68529865  0.79787965     0.36000
C1360       C  0.87969502  0.67692968  0.83161018    -0.06200
C1361       C  0.88232830  0.64274134  0.83998494    -0.33100
C1362       C  0.88251058  0.61778878  0.81492993     0.35900
H1363       H  0.86997668  0.66845766  0.74765659     0.16300
O1364       O  0.86984461  0.71788193  0.78842698    -0.60600
H1365       H  0.88649911  0.63542861  0.86571926     0.16300
O1366       O  0.88719240  0.58515928  0.82384394    -0.60700
H1367       H  0.91173842  0.58187424  0.82390252     0.43300
H1368       H  0.89114228  0.72452977  0.77763882     0.43300
C1369       C  0.97084844  0.50134752  0.71542383    -0.05800
C1370       C  0.99151543  0.52179887  0.73413744    -0.33200
C1371       C  0.01846221  0.50908878  0.75252270     0.36000
C1372       C  0.02573695  0.47463854  0.75378333    -0.06200
C1373       C  0.00557475  0.45363727  0.73400079    -0.33100
C1374       C  0.97835945  0.46679571  0.71485199     0.35900
H1375       H  0.98610659  0.54821704  0.73544491     0.16300
O1376       O  0.03700571  0.53076136  0.77081147    -0.60600
H1377       H  0.00979876  0.42703335  0.73458985     0.16300
O1378       O  0.95798505  0.44545148  0.69777114    -0.60700
H1379       H  0.96914580  0.44198843  0.67591180     0.43300
H1380       H  0.04112790  0.55059064  0.75654111     0.43300
C1381       C  0.15938861  0.42228406  0.86125466    -0.05800
C1382       C  0.15180198  0.42494490  0.89570668    -0.33200
C1383       C  0.17744523  0.42754377  0.92003197     0.36000
C1384       C  0.21127940  0.42707969  0.91014839    -0.06200
C1385       C  0.21840522  0.42100917  0.87621469    -0.33100
C1386       C  0.19320872  0.41811946  0.85227634     0.35900
H1387       H  0.12608633  0.42734957  0.90366499     0.16300
O1388       O  0.16908748  0.43194293  0.95296260    -0.60600
H1389       H  0.24402518  0.41879547  0.86777183     0.16300
O1390       O  0.20219781  0.41326823  0.81952268    -0.60700
H1391       H  0.20655262  0.38906181  0.81757616     0.43300
H1392       H  0.16724448  0.45636535  0.95588458     0.43300
C1393       C  0.26679629  0.51993744  0.03826867    -0.05800
C1394       C  0.28592478  0.54807895  0.04676356    -0.33200
C1395       C  0.27118361  0.57642262  0.06178256     0.36000
C1396       C  0.23668950  0.57698967  0.06959713    -0.06200
C1397       C  0.21849495  0.54762639  0.06416787    -0.33100
C1398       C  0.23268992  0.51999557  0.04790744     0.35900
H1399       H  0.31229520  0.54866464  0.04081334     0.16300
O1400       O  0.29081386  0.60336951  0.06910161    -0.60600
H1401       H  0.19222838  0.54669438  0.07048429     0.16300
O1402       O  0.21222473  0.49383258  0.04013282    -0.60700
H1403       H  0.21126003  0.48001427  0.06068801     0.43300
H1404       H  0.29853988  0.61226535  0.04727778     0.43300
C1405       C  0.12259319  0.70911311  0.10282317    -0.05800
C1406       C  0.13644440  0.74082731  0.10712244    -0.33200
C1407       C  0.11615444  0.76934711  0.10933766     0.36000
C1408       C  0.08089923  0.76702532  0.10641397    -0.06200
C1409       C  0.06692014  0.73519962  0.10339375    -0.33100
C1410       C  0.08722737  0.70652917  0.10207103     0.35900
H1411       H  0.16330329  0.74385436  0.10745851     0.16300
O1412       O  0.13139222  0.79964732  0.11291965    -0.60600
H1413       H  0.04005145  0.73238600  0.10244383     0.16300
O1414       O  0.07211328  0.67596996  0.10046891    -0.60700
H1415       H  0.06307597  0.67428578  0.07747384     0.43300
H1416       H  0.13683685  0.80128457  0.13705463     0.43300
C1417       C  0.95182602  0.82193813  0.02145970    -0.05800
C1418       C  0.94582688  0.83697332  0.98993646    -0.33200
C1419       C  0.92902303  0.81965027  0.96374158     0.36000
C1420       C  0.91835834  0.78625486  0.96824224    -0.06200
C1421       C  0.92244082  0.77258431  0.00048858    -0.33100
C1422       C  0.93886789  0.78947028  0.02630226     0.35900
H1423       H  0.95450515  0.86207504  0.98535987     0.16300
O1424       O  0.92434484  0.83534183  0.93366118    -0.60600
H1425       H  0.91435554  0.74736685  0.00558896     0.16300
O1426       O  0.94277087  0.77309786  0.05620999    -0.60700
H1427       H  0.96381868  0.76028235  0.05391671     0.43300
H1428       H  0.90237918  0.84657092  0.93561545     0.43300
C1429       C  0.03177506  0.95864823  0.16375228    -0.05800
C1430       C  0.02134805  0.94772453  0.19543375    -0.33200
C1431       C  0.03653849  0.96006176  0.22427745     0.36000
C1432       C  0.06194223  0.98400524  0.22137092    -0.06200
C1433       C  0.06982634  0.99721097  0.18977960    -0.33100
C1434       C  0.05519945  0.98436696  0.16103822     0.35900
H1435       H  0.00374218  0.92738816  0.19769464     0.16300
O1436       O  0.02638249  0.94870973  0.25503306    -0.60600
H1437       H  0.08848882  0.01653048  0.18720610     0.16300
O1438       O  0.06522275  0.99570759  0.13021926    -0.60700
H1439       H  0.08649189  0.98393260  0.12544400     0.43300
H1440       H  0.03920637  0.92793522  0.25892289     0.43300
C1441       C  0.19742995  0.98904769  0.30267546    -0.05800
C1442       C  0.20571042  0.96250947  0.32454807    -0.33200
C1443       C  0.23898938  0.95325606  0.33057758     0.36000
C1444       C  0.26501917  0.97041954  0.31472309    -0.06200
C1445       C  0.25699886  0.99595996  0.29185963    -0.33100
C1446       C  0.22369080  0.00528921  0.28572399     0.35900
H1447       H  0.18635510  0.94958681  0.33831569     0.16300
O1448       O  0.24582457  0.92962785  0.35443295    -0.60600
H1449       H  0.27684222  0.00976673  0.27971807     0.16300
O1450       O  0.21734321  0.03104608  0.26405298    -0.60700
H1451       H  0.22003768  0.05154330  0.27751898     0.43300
H1452       H  0.24692377  0.90829027  0.34212154     0.43300
C1453       C  0.97982428  0.91934970  0.38857385    -0.05800
C1454       C  0.97197292  0.93144614  0.35666511    -0.33200
C1455       C  0.98355778  0.96246626  0.34639168     0.36000
C1456       C  0.00431755  0.98086646  0.36776544    -0.06200
C1457       C  0.00787247  0.97101412  0.40128888    -0.33100
C1458       C  0.99574403  0.94010991  0.41180518     0.35900
H1459       H  0.95896212  0.91581002  0.33891851     0.16300
O1460       O  0.97807412  0.97269673  0.31410621    -0.60600
H1461       H  0.02370988  0.98503233  0.41805671     0.16300
O1462       O  0.00296737  0.92888402  0.44343780    -0.60700
H1463       H  0.02507709  0.91787468  0.44160261     0.43300
H1464       H  0.95726082  0.98606408  0.31508625     0.43300
C1465       C  0.99042769  0.82215625  0.28409380    -0.05800
C1466       C  0.02329616  0.83387094  0.27863177    -0.33200
C1467       C  0.03457848  0.84275873  0.24651965     0.36000
C1468       C  0.01316110  0.83954496  0.21901278    -0.06200
C1469       C  0.98002283  0.82920092  0.22459799    -0.33100
C1470       C  0.96852905  0.82085102  0.25666502     0.35900
H1471       H  0.04067120  0.83556100  0.29928392     0.16300
O1472       O  0.06723904  0.85189186  0.24203609    -0.60600
H1473       H  0.96302407  0.82661707  0.20376190     0.16300
O1474       O  0.93612747  0.81061780  0.26062257    -0.60700
H1475       H  0.93613144  0.78672360  0.25453432     0.43300
H1476       H  0.06691654  0.87652242  0.24069628     0.43300
C1477       C  0.32656182  0.90922231  0.44465716    -0.05800
C1478       C  0.32778409  0.91550831  0.47890952    -0.33200
C1479       C  0.30455959  0.90030788  0.50003972     0.36000
C1480       C  0.27882814  0.88063775  0.48607285    -0.06200
C1481       C  0.28150657  0.87010263  0.45300199    -0.33100
C1482       C  0.30585906  0.88349575  0.43248812     0.35900
H1483       H  0.34489784  0.93379642  0.48885598     0.16300
O1484       O  0.30541575  0.90738041  0.53353304    -0.60600
H1485       H  0.26340993  0.85313689  0.44240240     0.16300
O1486       O  0.30725332  0.87335349  0.39976401    -0.60700
H1487       H  0.32730861  0.85889292  0.39834807     0.43300
H1488       H  0.31787272  0.88864349  0.54384842     0.43300
C1489       C  0.15179985  0.97154303  0.47468261    -0.05800
C1490       C  0.12269660  0.99077718  0.47844191    -0.33200
C1491       C  0.11129138  0.01057630  0.45206947     0.36000
C1492       C  0.12892470  0.01074011  0.42177430    -0.06200
C1493       C  0.16024519  0.99568956  0.41963667    -0.33100
C1494       C  0.17207982  0.97637742  0.44608363     0.35900
H1495       H  0.10721667  0.98822517  0.50052760     0.16300
O1496       O  0.08099985  0.02630902  0.45468747    -0.60600
H1497       H  0.17424107  0.99657899  0.39641787     0.16300
O1498       O  0.20228883  0.96052861  0.44269750    -0.60700
H1499       H  0.19835920  0.94210928  0.42672683     0.43300
H1500       H  0.08643388  0.04996390  0.45907504     0.43300
C1501       C  0.01979069  0.81884840  0.48936615    -0.05800
C1502       C  0.01525475  0.84290395  0.51427917    -0.33200
C1503       C  0.04312725  0.85781680  0.52897254     0.36000
C1504       C  0.07516517  0.84873947  0.51784039    -0.06200
C1505       C  0.07931912  0.82067356  0.49785224    -0.33100
C1506       C  0.05170750  0.80526387  0.48395518     0.35900
H1507       H  0.99072606  0.85340684  0.51874787     0.16300
O1508       O  0.03876498  0.88400159  0.55041578    -0.60600
H1509       H  0.10403634  0.81227142  0.49079442     0.16300
O1510       O  0.05644577  0.78020941  0.46120219    -0.60700
H1511       H  0.06647063  0.79090579  0.44117953     0.43300
H1512       H  0.04166718  0.87436623  0.57310188     0.43300
C1513       C  0.20343684  0.09684658  0.41583041    -0.05800
C1514       C  0.17327920  0.11446731  0.41982369    -0.33200
C1515       C  0.14933778  0.11556213  0.39384785     0.36000
C1516       C  0.15588701  0.09964921  0.36304676    -0.06200
C1517       C  0.18587722  0.08155614  0.35984959    -0.33100
C1518       C  0.20921622  0.08007242  0.38562980     0.35900
H1519       H  0.16901459  0.12871617  0.44237436     0.16300
O1520       O  0.12039523  0.13322968  0.39838191    -0.60600
H1521       H  0.19152948  0.06805789  0.33713450     0.16300
O1522       O  0.23843876  0.06284820  0.38070690    -0.60700
H1523       H  0.25227928  0.07727915  0.36607643     0.43300
H1524       H  0.10510516  0.11777739  0.41020417     0.43300
C1525       C  0.23779997  0.96185110  0.56814454    -0.05800
C1526       C  0.25255517  0.96012785  0.53617708    -0.33200
C1527       C  0.26931955  0.98721056  0.52131752     0.36000
C1528       C  0.27044875  0.01823553  0.53745543    -0.06200
C1529       C  0.25514835  0.02056071  0.56930716    -0.33100
C1530       C  0.23885368  0.99297193  0.58438384     0.35900
H1531       H  0.24862780  0.93855090  0.52099360     0.16300
O1532       O  0.28228975  0.98363129  0.48976810    -0.60600
H1533       H  0.25492253  0.04419966  0.58222356     0.16300
O1534       O  0.22263852  0.99719520  0.61428082    -0.60700
H1535       H  0.19974137  0.00447872  0.60825399     0.43300
H1536       H  0.26333888  0.98776737  0.47435923     0.43300
C1537       C  0.82868025  0.93048915  0.09000468    -0.05800
C1538       C  0.83083113  0.89920576  0.07478948    -0.33200
C1539       C  0.80233214  0.88482812  0.06079517     0.36000
C1540       C  0.77169625  0.90183163  0.06253734    -0.06200
C1541       C  0.77046794  0.93425903  0.07471515    -0.33100
C1542       C  0.79887031  0.94886934  0.08802748     0.35900
H1543       H  0.85349927  0.88458245  0.07687280     0.16300
O1544       O  0.80416190  0.85358898  0.04723955    -0.60600
H1545       H  0.74729221  0.94808684  0.07427842     0.16300
O1546       O  0.79630800  0.97933544  0.10318161    -0.60700
H1547       H  0.79234206  0.99541827  0.08476195     0.43300
H1548       H  0.80037481  0.83810237  0.06623522     0.43300
C1549       C  0.76812348  0.97266137  0.21642417    -0.05800
C1550       C  0.74922326  0.95515380  0.24012955    -0.33200
C1551       C  0.71736228  0.96662046  0.24951343     0.36000
C1552       C  0.70401215  0.99610499  0.23522854    -0.06200
C1553       C  0.72270422  0.01317002  0.21122573    -0.33100
C1554       C  0.75411563  0.00157199  0.20149765     0.35900
H1555       H  0.75961195  0.93335681  0.25229496     0.16300
O1556       O  0.69969653  0.94904521  0.27304929    -0.60600
H1557       H  0.71255147  0.03515723  0.19921779     0.16300
O1558       O  0.77126895  0.01915655  0.17756192    -0.60700
H1559       H  0.76366235  0.00996406  0.15589181     0.43300
H1560       H  0.70279789  0.96137418  0.29425780     0.43300
C1561       C  0.87414504  0.90234263  0.28519814    -0.05800
C1562       C  0.87550170  0.91585020  0.31746423    -0.33200
C1563       C  0.87818244  0.89502467  0.34588617     0.36000
C1564       C  0.87971245  0.85986289  0.34247217    -0.06200
C1565       C  0.87519022  0.84650990  0.31050713    -0.33100
C1566       C  0.87211646  0.86713013  0.28232102     0.35900
H1567       H  0.87576057  0.94258831  0.32067743     0.16300
O1568       O  0.87985656  0.90940090  0.37689962    -0.60600
H1569       H  0.87585037  0.81981439  0.30691427     0.16300
O1570       O  0.86799224  0.85222839  0.25179559    -0.60700
H1571       H  0.84351725  0.85163380  0.24818838     0.43300
H1572       H  0.90278004  0.91847742  0.37865022     0.43300
C1573       C  0.96432185  0.03018063  0.22607741    -0.05800
C1574       C  0.95887053  0.03969882  0.25952360    -0.33200
C1575       C  0.98228646  0.05788992  0.27780851     0.36000
C1576       C  0.01348318  0.06675472  0.26366924    -0.06200
C1577       C  0.01813557  0.05979098  0.22928532    -0.33100
C1578       C  0.99367181  0.04219886  0.21046440     0.35900
H1579       H  0.93610052  0.03261108  0.27229889     0.16300
O1580       O  0.97480991  0.06517037  0.31047658    -0.60600
H1581       H  0.04138262  0.06657492  0.21726890     0.16300
O1582       O  0.99938649  0.03589887  0.17731985    -0.60700
H1583       H  0.99194880  0.05626801  0.16539399     0.43300
H1584       H  0.96294171  0.08682782  0.30964498     0.43300
C1585       C  0.07771453  0.59187620  0.66024324    -0.05800
C1586       C  0.06569977  0.55955547  0.66351977    -0.33200
C1587       C  0.07732220  0.53962161  0.68964060     0.36000
C1588       C  0.09959801  0.55317904  0.71352250    -0.06200
C1589       C  0.11483945  0.58366573  0.70719544    -0.33100
C1590       C  0.10487662  0.60254909  0.67997772     0.35900
H1591       H  0.04562050  0.55077253  0.64773240     0.16300
O1592       O  0.06454819  0.50820372  0.69315113    -0.60600
H1593       H  0.13353407  0.59345027  0.72406360     0.16300
O1594       O  0.11952594  0.63299496  0.67486071    -0.60700
H1595       H  0.13383109  0.63013752  0.65481040     0.43300
H1596       H  0.07946234  0.49373867  0.67972633     0.43300
C1597       C  0.00191543  0.73481022  0.78805965    -0.05800
C1598       C  0.98181944  0.74645954  0.76182497    -0.33200
C1599       C  0.99047626  0.74065556  0.72846596     0.36000
C1600       C  0.01975751  0.72273797  0.72031645    -0.06200
C1601       C  0.04128197  0.71311707  0.74622681    -0.33100
C1602       C  0.03252841  0.71887025  0.77990396     0.35900
H1603       H  0.95846144  0.75903368  0.76708029     0.16300
O1604       O  0.96920515  0.75144694  0.70382978    -0.60600
H1605       H  0.06392558  0.69948219  0.74053106     0.16300
O1606       O  0.05396377  0.70850205  0.80456609    -0.60700
H1607       H  0.04940420  0.68443567  0.80755422     0.43300
H1608       H  0.97682822  0.77423865  0.69816650     0.43300
C1609       C  0.07329616  0.78110683  0.60484050    -0.05800
C1610       C  0.07303083  0.80624515  0.62954628    -0.33200
C1611       C  0.09804564  0.83134059  0.63009530     0.36000
C1612       C  0.12414941  0.83081035  0.60636048    -0.06200
C1613       C  0.12271830  0.80684477  0.58092821    -0.33100
C1614       C  0.09778695  0.78289367  0.57958508     0.35900
H1615       H  0.05478122  0.80526689  0.64952261     0.16300
O1616       O  0.09811653  0.85440643  0.65522727    -0.60600
H1617       H  0.14159730  0.80628913  0.56176355     0.16300
O1618       O  0.09928618  0.75962340  0.55454590    -0.60700
H1619       H  0.07921312  0.76354841  0.54060362     0.43300
H1620       H  0.08482315  0.87334606  0.64647122     0.43300
C1621       C  0.95159752  0.71073666  0.52582156    -0.05800
C1622       C  0.94969548  0.69356891  0.49526043    -0.33200
C1623       C  0.93583504  0.70871791  0.46633826     0.36000
C1624       C  0.92327561  0.74176331  0.46737307    -0.06200
C1625       C  0.92214687  0.75738637  0.49873478    -0.33100
C1626       C  0.93616046  0.74252221  0.52740273     0.35900
H1627       H  0.96041254  0.66890897  0.49323933     0.16300
O1628       O  0.93647639  0.69156552  0.43677589    -0.60600
H1629       H  0.91222467  0.78237933  0.50083996     0.16300
O1630       O  0.93484154  0.75971716  0.55696182    -0.60700
H1631       H  0.95263130  0.77678003  0.55526126     0.43300
H1632       H  0.91766127  0.67563668  0.43824999     0.43300
C1633       C  0.26437691  0.32425050  0.97245956    -0.05800
C1634       C  0.24354205  0.31733032  0.99999148    -0.33200
C1635       C  0.23506013  0.28458427  0.00872721     0.36000
C1636       C  0.24767645  0.25778046  0.98988327    -0.06200
C1637       C  0.26671435  0.26500751  0.96095887    -0.33100
C1638       C  0.27503833  0.29785494  0.95222772     0.35900
H1639       H  0.23474613  0.33747407  0.01567386     0.16300
O1640       O  0.21530936  0.27912224  0.03627022    -0.60600
H1641       H  0.27642687  0.24500734  0.94567496     0.16300
O1642       O  0.29524147  0.30363559  0.92512958    -0.60700
H1643       H  0.31836875  0.30191183  0.93381025     0.43300
H1644       H  0.22916655  0.28521764  0.05583891     0.43300
C1645       C  0.29779587  0.05910564  0.98536887    -0.05800
C1646       C  0.27514797  0.04499717  0.96289867    -0.33200
C1647       C  0.28621487  0.03329536  0.93218654     0.36000
C1648       C  0.32051152  0.03397114  0.92471073    -0.06200
C1649       C  0.34354720  0.04107685  0.95007938    -0.33100
C1650       C  0.33224591  0.05347717  0.98074199     0.35900
H1651       H  0.24858596  0.04723907  0.96706193     0.16300
O1652       O  0.26323204  0.02372788  0.90865969    -0.60600
H1653       H  0.37011163  0.04041365  0.94499631     0.16300
O1654       O  0.35510178  0.06418964  0.00377333    -0.60700
H1655       H  0.35574439  0.04649866  0.02110349     0.43300
H1656       H  0.25315397  0.04468047  0.90011992     0.43300
C1657       C  0.43141318  0.32910011  0.91223798    -0.05800
C1658       C  0.41603156  0.32422477  0.94322512    -0.33200
C1659       C  0.40250111  0.35106532  0.96019479     0.36000
C1660       C  0.40320386  0.38268679  0.94518950    -0.06200
C1661       C  0.42216439  0.38828526  0.91633353    -0.33100
C1662       C  0.43658849  0.36141728  0.89977071     0.35900
H1663       H  0.41372015  0.29946626  0.95382699     0.16300
O1664       O  0.38405475  0.34555316  0.98863732    -0.60600
H1665       H  0.42230127  0.41259136  0.90449776     0.16300
O1666       O  0.45265921  0.36650801  0.86989014    -0.60700
H1667       H  0.47584550  0.37256498  0.87597785     0.43300
H1668       H  0.40052235  0.33974236  0.00621469     0.43300
C1669       C  0.42626891  0.19113641  0.98036391    -0.05800
C1670       C  0.40859327  0.21420546  0.99997070    -0.33200
C1671       C  0.37874020  0.20501283  0.01556531     0.36000
C1672       C  0.36660803  0.17257583  0.01146659    -0.06200
C1673       C  0.38595130  0.14882012  0.99482678    -0.33100
C1674       C  0.41593869  0.15773175  0.97967950     0.35900
H1675       H  0.41628312  0.24004227  0.00059525     0.16300
O1676       O  0.36013745  0.22854757  0.03188203    -0.60600
H1677       H  0.37661869  0.12380932  0.99155121     0.16300
O1678       O  0.43218223  0.13478296  0.96022550    -0.60700
H1679       H  0.44780181  0.12324379  0.97560656     0.43300
H1680       H  0.34669292  0.23966482  0.01426510     0.43300
C1681       C  0.42850412  0.07560487  0.82725945    -0.05800
C1682       C  0.45403393  0.07121094  0.85077610    -0.33200
C1683       C  0.46938526  0.09905811  0.86480970     0.36000
C1684       C  0.45932727  0.13092318  0.85440130    -0.06200
C1685       C  0.43812606  0.13485397  0.82708659    -0.33100
C1686       C  0.42240739  0.10737145  0.81352920     0.35900
H1687       H  0.45842162  0.04694151  0.86183132     0.16300
O1688       O  0.49015832  0.09514709  0.89177281    -0.60600
H1689       H  0.43113591  0.15949034  0.81848227     0.16300
O1690       O  0.39748297  0.11227098  0.79047726    -0.60700
H1691       H  0.37859934  0.12236016  0.80296056     0.43300
H1692       H  0.51183445  0.08793442  0.88222996     0.43300
C1693       C  0.35703780  0.26481428  0.10099715    -0.05800
C1694       C  0.36154943  0.23342709  0.11614973    -0.33200
C1695       C  0.33560979  0.20945724  0.11619274     0.36000
C1696       C  0.30430197  0.21699419  0.10160434    -0.06200
C1697       C  0.30057535  0.24826085  0.08597329    -0.33100
C1698       C  0.32621997  0.27176756  0.08566326     0.35900
H1699       H  0.38464420  0.22797702  0.12912998     0.16300
O1700       O  0.34083626  0.17928260  0.13138648    -0.60600
H1701       H  0.27759368  0.25471045  0.07333967     0.16300
O1702       O  0.32096678  0.30180880  0.07006049    -0.60700
H1703       H  0.30659145  0.31474843  0.08553305     0.43300
H1704       H  0.35322403  0.16581884  0.11473733     0.43300
C1705       C  0.48196908  0.32398024  0.02243874    -0.05800
C1706       C  0.48711607  0.33993090  0.99124920    -0.33200
C1707       C  0.50362261  0.32348147  0.96425806     0.36000
C1708       C  0.51490641  0.29014787  0.96768464    -0.06200
C1709       C  0.51121709  0.27536686  0.99948179    -0.33100
C1710       C  0.49481078  0.29128950  0.02596185     0.35900
H1711       H  0.47811528  0.36510156  0.98760346     0.16300
O1712       O  0.50728775  0.33985485  0.93440093    -0.60600
H1713       H  0.51943513  0.24998761  0.00360586     0.16300
O1714       O  0.49038238  0.27362321  0.05504511    -0.60700
H1715       H  0.46848240  0.26241735  0.05252462     0.43300
H1716       H  0.52747941  0.35378867  0.93711727     0.43300
C1717       C  0.02904793  0.88505867  0.93916926    -0.05800
C1718       C  0.02960349  0.85533816  0.95747353    -0.33200
C1719       C  0.01708762  0.82639154  0.94360865     0.36000
C1720       C  0.00216952  0.82738348  0.91194090    -0.06200
C1721       C  0.99726514  0.85798558  0.89569017    -0.33100
C1722       C  0.01112379  0.88694015  0.90904197     0.35900
H1723       H  0.04360066  0.85371628  0.98062237     0.16300
O1724       O  0.02087512  0.79697048  0.96054635    -0.60600
H1725       H  0.98465584  0.85901426  0.87175071     0.16300
O1726       O  0.01088831  0.91571471  0.89051731    -0.60700
H1727       H  0.99069667  0.92793251  0.89796403     0.43300
H1728       H  0.99879302  0.79257168  0.97080891     0.43300
C1729       C  0.15471898  0.82337619  0.97150784    -0.05800
C1730       C  0.17937409  0.80563857  0.95405715    -0.33200
C1731       C  0.18841459  0.77325744  0.96425383     0.36000
C1732       C  0.17308926  0.75852588  0.99253795    -0.06200
C1733       C  0.14740649  0.77566968  0.00878398    -0.33100
C1734       C  0.13777164  0.80738470  0.99813939     0.35900
H1735       H  0.19270408  0.81739413  0.93362270     0.16300
O1736       O  0.21299230  0.75669343  0.94712555    -0.60600
H1737       H  0.13442645  0.76425707  0.02966739     0.16300
O1738       O  0.11211727  0.82301380  0.01460087    -0.60700
H1739       H  0.09166162  0.81671044  0.00221880     0.43300
H1740       H  0.23412947  0.76291971  0.95835208     0.43300
C1741       C  0.28234149  0.93631785  0.86801152    -0.05800
C1742       C  0.28483899  0.93772360  0.90326339    -0.33200
C1743       C  0.25638079  0.93588798  0.92390610     0.36000
C1744       C  0.22445341  0.93286620  0.90958286    -0.06200
C1745       C  0.22225853  0.92929176  0.87455662    -0.33100
C1746       C  0.25061812  0.93059861  0.85399357     0.35900
H1747       H  0.30880885  0.94205954  0.91495260     0.16300
O1748       O  0.26007115  0.93844318  0.95787784    -0.60600
H1749       H  0.19817622  0.92596317  0.86275085     0.16300
O1750       O  0.24651659  0.92855251  0.82002457    -0.60700
H1751       H  0.24902959  0.90459384  0.81474371     0.43300
H1752       H  0.25757087  0.96249300  0.96280309     0.43300
C1753       C  0.19886157  0.07577265  0.07055497    -0.05800
C1754       C  0.21332703  0.04398072  0.06709475    -0.33200
C1755       C  0.19707179  0.01767324  0.05077755     0.36000
C1756       C  0.16506994  0.02195650  0.03622510    -0.06200
C1757       C  0.14904065  0.05285177  0.04207975    -0.33100
C1758       C  0.16537422  0.07927802  0.05936825     0.35900
H1759       H  0.23849965  0.03957094  0.07595805     0.16300
O1760       O  0.21353810  0.98781258  0.04863195    -0.60600
H1761       H  0.12409117  0.05693882  0.03249823     0.16300
O1762       O  0.14865982  0.10867128  0.06389400    -0.60700
H1763       H  0.13941604  0.10736178  0.08688733     0.43300
H1764       H  0.20806764  0.97588961  0.06969179     0.43300
C1765       C  0.55798271  0.14073374  0.77449492    -0.05800
C1766       C  0.55820446  0.12956150  0.80792155    -0.33200
C1767       C  0.55971392  0.15243136  0.83479520     0.36000
C1768       C  0.56027041  0.18716901  0.82849875    -0.06200
C1769       C  0.56373051  0.19772252  0.79521060    -0.33100
C1770       C  0.56288298  0.17521526  0.76865036     0.35900
H1771       H  0.55587672  0.10324407  0.81328437     0.16300
O1772       O  0.55819733  0.14053403  0.86690376    -0.60600
H1773       H  0.56504999  0.22406087  0.78945096     0.16300
O1774       O  0.56588458  0.18764784  0.73678858    -0.60700
H1775       H  0.59020221  0.18767563  0.73209318     0.43300
H1776       H  0.58163264  0.14036028  0.87485466     0.43300
C1777       C  0.41057780  0.97671160  0.75243961    -0.05800
C1778       C  0.40768591  0.98749933  0.71888189    -0.33200
C1779       C  0.43457351  0.00282659  0.70192352     0.36000
C1780       C  0.46505737  0.00851053  0.71859803    -0.06200
C1781       C  0.46873934  0.99528468  0.75107534    -0.33100
C1782       C  0.44231998  0.97909674  0.76761689     0.35900
H1783       H  0.38381086  0.98605132  0.70628914     0.16300
O1784       O  0.42966662  0.01479989  0.67017522    -0.60600
H1785       H  0.49218911  0.99811250  0.76421189     0.16300
O1786       O  0.44738787  0.96782818  0.79960558    -0.60700
H1787       H  0.45400087  0.94417773  0.79712858     0.43300
H1788       H  0.43285705  0.99519883  0.65524167     0.43300
C1789       C  0.84847177  0.05585929  0.82939645    -0.05800
C1790       C  0.88061933  0.06870597  0.82601177    -0.33200
C1791       C  0.89707568  0.08169827  0.85351780     0.36000
C1792       C  0.88109746  0.08202132  0.88484479    -0.06200
C1793       C  0.85024886  0.06618410  0.88894023    -0.33100
C1794       C  0.83384658  0.05285389  0.86122901     0.35900
H1795       H  0.89268394  0.06928447  0.80180639     0.16300
O1796       O  0.92732322  0.09710977  0.84907371    -0.60600
H1797       H  0.83727105  0.06742563  0.91270796     0.16300
O1798       O  0.80239017  0.03990484  0.86486483    -0.60700
H1799       H  0.80555526  0.01827278  0.87645229     0.43300
H1800       H  0.92222002  0.11838246  0.83746718     0.43300
C1801       C  0.72269882  0.05263458  0.73715156    -0.05800
C1802       C  0.71762041  0.08219862  0.71835747    -0.33200
C1803       C  0.68542201  0.09328044  0.70974971     0.36000
C1804       C  0.65751333  0.07491547  0.72001262    -0.06200
C1805       C  0.66244684  0.04690909  0.74081450    -0.33100
C1806       C  0.69446875  0.03577452  0.74941159     0.35900
H1807       H  0.73875476  0.09617473  0.70897941     0.16300
O1808       O  0.68173654  0.12079683  0.68971693    -0.60600
H1809       H  0.64118470  0.03250973  0.74927907     0.16300
O1810       O  0.69769616  0.00711859  0.76784184    -0.60700
H1811       H  0.69517428  0.01412166  0.79146743     0.43300
H1812       H  0.68162674  0.11216810  0.66651107     0.43300
C1813       C  0.92164674  0.05723922  0.69112589    -0.05800
C1814       C  0.92524903  0.06249444  0.65661270    -0.33200
C1815       C  0.93958045  0.09190653  0.64473058     0.36000
C1816       C  0.95023906  0.11606594  0.66768569    -0.06200
C1817       C  0.95203156  0.10810153  0.70174332    -0.33100
C1818       C  0.93799182  0.07859711  0.71361741     0.35900
H1819       H  0.91335391  0.04596177  0.63895290     0.16300
O1820       O  0.93864111  0.09872188  0.61113359    -0.60600
H1821       H  0.96179319  0.12597675  0.71945009     0.16300
O1822       O  0.93786160  0.07205125  0.74735681    -0.60700
H1823       H  0.92512261  0.09051347  0.75773852     0.43300
H1824       H  0.95913446  0.08837163  0.60187515     0.43300
C1825       C  0.93886498  0.22548347  0.76112559    -0.05800
C1826       C  0.96015413  0.20707903  0.78166582    -0.33200
C1827       C  0.95079566  0.19844217  0.81409779     0.36000
C1828       C  0.91962392  0.20895377  0.82743357    -0.06200
C1829       C  0.89794408  0.22716849  0.80678378    -0.33100
C1830       C  0.90728691  0.23531658  0.77375677     0.35900
H1831       H  0.98409325  0.19863878  0.77232817     0.16300
O1832       O  0.97288946  0.18005061  0.83280874    -0.60600
H1833       H  0.87425659  0.23591677  0.81648230     0.16300
O1834       O  0.88604669  0.25418677  0.75460034    -0.60700
H1835       H  0.86926524  0.23833580  0.74588388     0.43300
H1836       H  0.96896813  0.15659289  0.82634117     0.43300
C1837       C  0.59257190  0.11055269  0.57841557    -0.05800
C1838       C  0.59210762  0.14342256  0.56662594    -0.33200
C1839       C  0.62069327  0.15700020  0.55197693     0.36000
C1840       C  0.64959944  0.13730369  0.54968053    -0.06200
C1841       C  0.64822356  0.10331936  0.55731907    -0.33100
C1842       C  0.61971387  0.08977611  0.57136249     0.35900
H1843       H  0.57135310  0.15966806  0.57270094     0.16300
O1844       O  0.62155410  0.19030303  0.54446720    -0.60600
H1845       H  0.67007273  0.08762958  0.55439879     0.16300
O1846       O  0.62011840  0.05734096  0.58214925    -0.60700
H1847       H  0.63283204  0.05741940  0.60343372     0.43300
H1848       H  0.60890778  0.19263893  0.52328402     0.43300
C1849       C  0.79856948  0.02614425  0.62610699    -0.05800
C1850       C  0.76492209  0.03546935  0.62606647    -0.33200
C1851       C  0.75138966  0.05119812  0.59805429     0.36000
C1852       C  0.77168072  0.05706739  0.56998070    -0.06200
C1853       C  0.80394683  0.04367386  0.56858044    -0.33100
C1854       C  0.81772324  0.02863248  0.59685730     0.35900
H1855       H  0.75008679  0.03324543  0.64865780     0.16300
O1856       O  0.71953306  0.06375158  0.59945023    -0.60600
H1857       H  0.81991601  0.04882436  0.54728261     0.16300
O1858       O  0.85071669  0.01941498  0.59677740    -0.60700
H1859       H  0.86328515  0.04014861  0.60133738     0.43300
H1860       H  0.72142406  0.08524481  0.61140367     0.43300
C1861       C  0.85307069  0.17595251  0.53543135    -0.05800
C1862       C  0.88093541  0.15484442  0.53442753    -0.33200
C1863       C  0.91204891  0.16664839  0.54439980     0.36000
C1864       C  0.91497863  0.19962811  0.55541256    -0.06200
C1865       C  0.88882653  0.22203761  0.55029215    -0.33100
C1866       C  0.85760384  0.21033131  0.54081055     0.35900
H1867       H  0.87805293  0.12855288  0.52933442     0.16300
O1868       O  0.93772603  0.14452295  0.54912752    -0.60600
H1869       H  0.89114745  0.24759993  0.55846794     0.16300
O1870       O  0.83131569  0.23223921  0.53909349    -0.60700
H1871       H  0.82520232  0.23703542  0.56265465     0.43300
H1872       H  0.94865916  0.14256754  0.52696146     0.43300
C1873       C  0.71867314  0.92662257  0.63533183    -0.05800
C1874       C  0.71109142  0.92125548  0.66937630    -0.33200
C1875       C  0.73581805  0.92056295  0.69397316     0.36000
C1876       C  0.76952991  0.92558452  0.68539630    -0.06200
C1877       C  0.77780985  0.92712201  0.65100574    -0.33100
C1878       C  0.75264481  0.92762656  0.62603652     0.35900
H1879       H  0.68537770  0.91868140  0.67740096     0.16300
O1880       O  0.72630036  0.91757310  0.72682116    -0.60600
H1881       H  0.80355058  0.93056626  0.64351856     0.16300
O1882       O  0.76147169  0.93177386  0.59317621    -0.60700
H1883       H  0.76641289  0.90905075  0.58494238     0.43300
H1884       H  0.73132838  0.89418520  0.73299528     0.43300
C1885       C  0.65967317  0.01925662  0.50325866    -0.05800
C1886       C  0.64159482  0.04860236  0.49655717    -0.33200
C1887       C  0.65683229  0.07643545  0.48095603     0.36000
C1888       C  0.69103590  0.07564539  0.47147816    -0.06200
C1889       C  0.70792432  0.04515549  0.47513001    -0.33100
C1890       C  0.69274622  0.01742099  0.49053655     0.35900
H1891       H  0.61596290  0.05069489  0.50493381     0.16300
O1892       O  0.63845378  0.10501603  0.47725858    -0.60600
H1893       H  0.73385980  0.04317342  0.46770931     0.16300
O1894       O  0.71113822  0.98879599  0.49383198    -0.60700
H1895       H  0.70763465  0.97652165  0.47265480     0.43300
H1896       H  0.63058454  0.10476112  0.45376689     0.43300
C1897       C  0.10317774  0.09916009  0.95692640    -0.05800
C1898       C  0.13440586  0.08352568  0.95420735    -0.33200
C1899       C  0.16274874  0.09855502  0.96716126     0.36000
C1900       C  0.15981650  0.12898838  0.98387037    -0.06200
C1901       C  0.12809442  0.14238168  0.99040659    -0.33100
C1902       C  0.09967809  0.12768949  0.97671824     0.35900
H1903       H  0.13732405  0.06157203  0.93876862     0.16300
O1904       O  0.19326059  0.08375822  0.96271802    -0.60600
H1905       H  0.12559827  0.16517335  0.00458792     0.16300
O1906       O  0.06951920  0.14370174  0.97904892    -0.60700
H1907       H  0.05875339  0.13426598  0.99929512     0.43300
H1908       H  0.19569615  0.06843738  0.98204723     0.43300
C1909       C  0.15894454  0.06344926  0.83348912    -0.05800
C1910       C  0.17958384  0.08435048  0.81460793    -0.33200
C1911       C  0.21264028  0.07500215  0.80753769     0.36000
C1912       C  0.22532196  0.04403398  0.81896540    -0.06200
C1913       C  0.20515454  0.02394389  0.83906789    -0.33100
C1914       C  0.17247641  0.03346690  0.84664325     0.35900
H1915       H  0.16978415  0.10732456  0.80428979     0.16300
O1916       O  0.23181316  0.09564087  0.78806983    -0.60600
H1917       H  0.21484492  0.00088375  0.84932288     0.16300
O1918       O  0.15403608  0.01343053  0.86749078    -0.60700
H1919       H  0.14768116  0.99391451  0.85379741     0.43300
H1920       H  0.24097127  0.11240724  0.80370086     0.43300
C1921       C  0.04788607  0.17500563  0.70719903    -0.05800
C1922       C  0.04715867  0.13996570  0.70374610    -0.33200
C1923       C  0.04790296  0.11864134  0.73169721     0.36000
C1924       C  0.04948407  0.13198439  0.76411638    -0.06200
C1925       C  0.05200533  0.16685020  0.76745292    -0.33100
C1926       C  0.05149956  0.18813987  0.73958203     0.35900
H1927       H  0.04420757  0.12889032  0.67927564     0.16300
O1928       O  0.04590859  0.08493458  0.72694825    -0.60600
H1929       H  0.05397271  0.17796133  0.79201028     0.16300
O1930       O  0.05233111  0.22183566  0.74466835    -0.60700
H1931       H  0.07636730  0.22767326  0.74480844     0.43300
H1932       H  0.02175912  0.07967179  0.72818197     0.43300
C1933       C  0.90553787  0.97126596  0.79161966    -0.05800
C1934       C  0.93762667  0.97357935  0.77733156    -0.33200
C1935       C  0.96399410  0.99029902  0.79305291     0.36000
C1936       C  0.95991318  0.00490902  0.82499883    -0.06200
C1937       C  0.92884969  0.99987791  0.84110615    -0.33100
C1938       C  0.90191303  0.98334646  0.82474739     0.35900
H1939       H  0.94204901  0.96409190  0.75238321     0.16300
O1940       O  0.99392164  0.99227431  0.77643227    -0.60600
H1941       H  0.92487483  0.01001804  0.86584562     0.16300
O1942       O  0.87180398  0.98087947  0.84078693    -0.60700
H1943       H  0.87318409  0.95999877  0.85397349     0.43300
H1944       H  0.99103673  0.01045846  0.75982416     0.43300
C1945       C  0.89924596  0.46406088  0.38347111    -0.05800
C1946       C  0.87346985  0.48682313  0.38946602    -0.33200
C1947       C  0.85663434  0.50133847  0.36274284     0.36000
C1948       C  0.86530947  0.49213293  0.32997030    -0.06200
C1949       C  0.89392037  0.47287670  0.32418457    -0.33100
C1950       C  0.91134724  0.45924083  0.35093397     0.35900
H1951       H  0.86396770  0.49031740  0.41460830     0.16300
O1952       O  0.82978504  0.52164284  0.36890212    -0.60600
H1953       H  0.90206117  0.46745905  0.29891638     0.16300
O1954       O  0.93763616  0.43810520  0.34495222    -0.60700
H1955       H  0.92745760  0.41633176  0.33949111     0.43300
H1956       H  0.83945409  0.54400888  0.37275512     0.43300
C1957       C  0.90580153  0.33210648  0.31683505    -0.05800
C1958       C  0.90220864  0.35710448  0.29245555    -0.33200
C1959       C  0.91094526  0.35121197  0.25874844     0.36000
C1960       C  0.92347628  0.31973481  0.24867589    -0.06200
C1961       C  0.92570515  0.29450928  0.27281162    -0.33100
C1962       C  0.91674844  0.30021138  0.30618538     0.35900
H1963       H  0.89375821  0.38167083  0.29964527     0.16300
O1964       O  0.90791032  0.37672837  0.23608373    -0.60600
H1965       H  0.93464420  0.27003063  0.26586636     0.16300
O1966       O  0.91956653  0.27423942  0.32835021    -0.60700
H1967       H  0.89690056  0.26444039  0.32969794     0.43300
H1968       H  0.92627230  0.39232115  0.24144867     0.43300
C1969       C  0.84991483  0.26580479  0.43406832    -0.05800
C1970       C  0.81564525  0.26774384  0.42559904    -0.33200
C1971       C  0.79425972  0.24006202  0.42808639     0.36000
C1972       C  0.80657219  0.20910997  0.43921609    -0.06200
C1973       C  0.84098340  0.20702060  0.44715566    -0.33100
C1974       C  0.86232480  0.23478352  0.44493963     0.35900
H1975       H  0.80499663  0.29109400  0.41718564     0.16300
O1976       O  0.76107468  0.24407600  0.42075207    -0.60600
H1977       H  0.85144923  0.18387380  0.45634802     0.16300
O1978       O  0.89529329  0.23106359  0.45335198    -0.60700
H1979       H  0.89632735  0.23561201  0.47768297     0.43300
H1980       H  0.75900052  0.23819782  0.39679166     0.43300
C1981       C  0.97453042  0.32027494  0.51834772    -0.05800
C1982       C  0.98863487  0.28825623  0.51518137    -0.33200
C1983       C  0.00383431  0.27180708  0.54247040     0.36000
C1984       C  0.00511196  0.28693620  0.57434534    -0.06200
C1985       C  0.99236681  0.31962171  0.57703931    -0.33100
C1986       C  0.97753902  0.33620480  0.54962305     0.35900
H1987       H  0.98722989  0.27538576  0.49147597     0.16300
O1988       O  0.01575133  0.24016322  0.53789199    -0.60600
H1989       H  0.99277336  0.33218216  0.60095279     0.16300
O1990       O  0.96560855  0.36788282  0.55399660    -0.60700
H1991       H  0.98493422  0.38264365  0.54962039     0.43300
H1992       H  0.03935642  0.24302541  0.53099593     0.43300
C1993       C  0.39803978  0.45375599  0.16985404    -0.05800
C1994       C  0.40600637  0.44198752  0.20193069    -0.33200
C1995       C  0.38858576  0.45351397  0.22988887     0.36000
C1996       C  0.36332205  0.47755314  0.22585487    -0.06200
C1997       C  0.35737865  0.49114870  0.19398185    -0.33100
C1998       C  0.37445513  0.47929007  0.16608345     0.35900
H1999       H  0.42354278  0.42161679  0.20495317     0.16300
O2000       O  0.39656956  0.44128399  0.26091889    -0.60600
H2001       H  0.33870936  0.51039687  0.19053401     0.16300
O2002       O  0.36649509  0.49122585  0.13488840    -0.60700
H2003       H  0.34693593  0.47803261  0.12758361     0.43300
H2004       H  0.38038144  0.42310552  0.26516842     0.43300
C2005       C  0.23375957  0.48427601  0.31897046    -0.05800
C2006       C  0.22301389  0.47186053  0.35034199    -0.33200
C2007       C  0.18961449  0.46184795  0.35594909     0.36000
C2008       C  0.16583972  0.46378899  0.32998515    -0.06200
C2009       C  0.17703018  0.47485189  0.29832245    -0.33100
C2010       C  0.21032228  0.48474717  0.29269363     0.35900
H2011       H  0.24035355  0.47087734  0.37109612     0.16300
O2012       O  0.18028908  0.45162729  0.38731850    -0.60600
H2013       H  0.15961247  0.47638899  0.27767159     0.16300
O2014       O  0.21952480  0.49498177  0.26127641    -0.60700
H2015       H  0.22779245  0.47463161  0.24998174     0.43300
H2016       H  0.17367082  0.47227850  0.39911136     0.43300
C2017       C  0.41993391  0.22341689  0.41551844    -0.05800
C2018       C  0.40397890  0.22510578  0.44671228    -0.33200
C2019       C  0.39151669  0.19622992  0.46183522     0.36000
C2020       C  0.39501006  0.16544628  0.44553640    -0.06200
C2021       C  0.41278696  0.16370728  0.41536399    -0.33100
C2022       C  0.42524813  0.19239642  0.40037561     0.35900
H2023       H  0.40136212  0.24876337  0.45937126     0.16300
O2024       O  0.37499356  0.19851451  0.49180274    -0.60600
H2025       H  0.41496387  0.14025416  0.40222321     0.16300
O2026       O  0.44175331  0.19005575  0.37038999    -0.60700
H2027       H  0.42406467  0.19127940  0.35308927     0.43300
H2028       H  0.35097499  0.20000169  0.48606456     0.43300
C2029       C  0.43712861  0.48517704  0.35367450    -0.05800
C2030       C  0.44887854  0.46127665  0.33094812    -0.33200
C2031       C  0.46175481  0.43134437  0.34280277     0.36000
C2032       C  0.46412717  0.42634628  0.37737163    -0.06200
C2033       C  0.45906126  0.45268358  0.39948423    -0.33100
C2034       C  0.44606221  0.48262924  0.38763575     0.35900
H2035       H  0.44347091  0.46363032  0.30450131     0.16300
O2036       O  0.46748862  0.40568046  0.32097922    -0.60600
H2037       H  0.46250444  0.44911708  0.42611577     0.16300
O2038       O  0.43735350  0.50683570  0.41009644    -0.60700
H2039       H  0.45807738  0.51970670  0.41388740     0.43300
H2040       H  0.48876148  0.41124195  0.30961391     0.43300
C2041       C  0.43525798  0.31816019  0.29111928    -0.05800
C2042       C  0.44866415  0.29791511  0.26596980    -0.33200
C2043       C  0.44016807  0.30265895  0.23226425     0.36000
C2044       C  0.41744302  0.32811016  0.22261050    -0.06200
C2045       C  0.40377442  0.34820965  0.24772443    -0.33100
C2046       C  0.41228804  0.34344152  0.28153676     0.35900
H2047       H  0.46627419  0.27840850  0.27230501     0.16300
O2048       O  0.45468554  0.28223031  0.20897851    -0.60600
H2049       H  0.38643405  0.36784469  0.24113699     0.16300
O2050       O  0.39837891  0.36423934  0.30484048    -0.60700
H2051       H  0.37646915  0.35419651  0.31041553     0.43300
H2052       H  0.47620029  0.29301233  0.20321589     0.43300
C2053       C  0.15995488  0.40679785  0.48319599    -0.05800
C2054       C  0.13035374  0.38846852  0.48454557    -0.33200
C2055       C  0.10121676  0.40130972  0.47042865     0.36000
C2056       C  0.10133811  0.43340332  0.45611674    -0.06200
C2057       C  0.13019828  0.45286602  0.45769598    -0.33100
C2058       C  0.15960780  0.43949891  0.47074629     0.35900
H2059       H  0.13018050  0.36371566  0.49538080     0.16300
O2060       O  0.07310122  0.38186788  0.46919408    -0.60600
H2061       H  0.13075025  0.47729164  0.44614145     0.16300
O2062       O  0.18808149  0.45827318  0.47062577    -0.60700
H2063       H  0.18829585  0.46963471  0.49257884     0.43300
H2064       H  0.07733312  0.36544854  0.45119867     0.43300
C2065       C  0.29740042  0.48262250  0.48979755    -0.05800
C2066       C  0.33138258  0.47947752  0.48210047    -0.33200
C2067       C  0.34388507  0.49257584  0.45236888     0.36000
C2068       C  0.32259572  0.51044384  0.43102116    -0.06200
C2069       C  0.28996387  0.51783873  0.44108085    -0.33100
C2070       C  0.27702515  0.50360112  0.47034074     0.35900
H2071       H  0.34735232  0.46360640  0.49703548     0.16300
O2072       O  0.37644245  0.48652429  0.44359738    -0.60600
H2073       H  0.27368297  0.53211438  0.42483678     0.16300
O2074       O  0.24436100  0.50909877  0.47928793    -0.60700
H2075       H  0.23078791  0.50458831  0.45909161     0.43300
H2076       H  0.37669683  0.46358221  0.43453987     0.43300
C2077       C  0.36540516  0.37249506  0.52558220    -0.05800
C2078       C  0.38877061  0.39656788  0.51610570    -0.33200
C2079       C  0.41795157  0.38722725  0.49950277     0.36000
C2080       C  0.42393585  0.35331685  0.49312457    -0.06200
C2081       C  0.40262192  0.32917749  0.50699813    -0.33100
C2082       C  0.37300875  0.33862548  0.52270108     0.35900
H2083       H  0.38291561  0.42272653  0.51864818     0.16300
O2084       O  0.43799120  0.41143697  0.48596564    -0.60600
H2085       H  0.40690093  0.30299481  0.50213421     0.16300
O2086       O  0.34959524  0.31497326  0.53070149    -0.60700
H2087       H  0.36014008  0.30053976  0.54785047     0.43300
H2088       H  0.42608223  0.41927433  0.46565717     0.43300
C2089       C  0.25584609  0.28464446  0.49474501    -0.05800
C2090       C  0.28153376  0.27744968  0.47154903    -0.33200
C2091       C  0.28809842  0.24464461  0.46079223     0.36000
C2092       C  0.26865991  0.21803771  0.47292883    -0.06200
C2093       C  0.24270237  0.22544036  0.49570180    -0.33100
C2094       C  0.23622955  0.25798743  0.50647558     0.35900
H2095       H  0.29701778  0.29731539  0.46182214     0.16300
O2096       O  0.31307951  0.23902383  0.43798695    -0.60600
H2097       H  0.22729123  0.20572455  0.50585076     0.16300
O2098       O  0.21104254  0.26313542  0.52914644    -0.60700
H2099       H  0.19036178  0.26465753  0.51561037     0.43300
H2100       H  0.33399632  0.24609888  0.44909070     0.43300
C2101       C  0.00786068  0.71484796  0.40340997    -0.05800
C2102       C  0.01502748  0.71367768  0.43774818    -0.33200
C2103       C  0.02866491  0.68529157  0.45211225     0.36000
C2104       C  0.03499968  0.65743034  0.43215313    -0.06200
C2105       C  0.02413535  0.65697842  0.39881152    -0.33100
C2106       C  0.01017763  0.68559923  0.38436149     0.35900
H2107       H  0.01135571  0.73539099  0.45328483     0.16300
O2108       O  0.03956826  0.68642467  0.48458553    -0.60600
H2109       H  0.02952467  0.63567785  0.38315355     0.16300
O2110       O  0.00217081  0.68565974  0.35105437    -0.60700
H2111       H  0.97859917  0.67822340  0.35017088     0.43300
H2112       H  0.02191870  0.67516304  0.49775499     0.43300
C2113       C  0.17426344  0.70685283  0.48282467    -0.05800
C2114       C  0.16907859  0.73326383  0.46065151    -0.33200
C2115       C  0.17559691  0.76606378  0.47057721     0.36000
C2116       C  0.18744028  0.77305906  0.50333010    -0.06200
C2117       C  0.19532394  0.74644178  0.52441863    -0.33100
C2118       C  0.18899868  0.71364337  0.51442842     0.35900
H2119       H  0.15821111  0.72872750  0.43629960     0.16300
O2120       O  0.16893246  0.79129322  0.44836461    -0.60600
H2121       H  0.20475915  0.75107740  0.54934642     0.16300
O2122       O  0.19596655  0.68839767  0.53653397    -0.60700
H2123       H  0.21850118  0.68033547  0.53018965     0.43300
H2124       H  0.19093279  0.79760631  0.43891544     0.43300
C2125       C  0.22451824  0.60427561  0.41388231    -0.05800
C2126       C  0.21738251  0.61022306  0.37984734    -0.33200
C2127       C  0.24247461  0.61139497  0.35571478     0.36000
C2128       C  0.27598188  0.60705117  0.36498945    -0.06200
C2129       C  0.28369349  0.60470287  0.39943513    -0.33100
C2130       C  0.25817074  0.60301961  0.42383028     0.35900
H2131       H  0.19183822  0.61309148  0.37141591     0.16300
O2132       O  0.23386731  0.61575882  0.32275679    -0.60600
H2133       H  0.30933751  0.60171304  0.40735630     0.16300
O2134       O  0.26635847  0.59749744  0.45665479    -0.60700
H2135       H  0.26818973  0.61993542  0.46667586     0.43300
H2136       H  0.22409646  0.59426743  0.31560852     0.43300
C2137       C  0.15507651  0.51525225  0.54416124    -0.05800
C2138       C  0.14095716  0.48318886  0.54570344    -0.33200
C2139       C  0.15739711  0.45689824  0.56299803     0.36000
C2140       C  0.18872663  0.46230853  0.57853715    -0.06200
C2141       C  0.20004682  0.49533134  0.58049618    -0.33100
C2142       C  0.18376878  0.52132659  0.56377014     0.35900
H2143       H  0.11838877  0.47793724  0.53182948     0.16300
O2144       O  0.14379446  0.42569773  0.56230949    -0.60600
H2145       H  0.22340317  0.50078546  0.59296044     0.16300
O2146       O  0.19744384  0.55254965  0.56533516    -0.60700
H2147       H  0.18462786  0.56424468  0.58298555     0.43300
H2148       H  0.12820125  0.42497088  0.58155958     0.43300
C2149       C  0.36544075  0.08821831  0.65919460    -0.05800
C2150       C  0.38847585  0.08006831  0.68397957    -0.33200
C2151       C  0.37766984  0.06655001  0.71418701     0.36000
C2152       C  0.34352097  0.05976092  0.71885920    -0.06200
C2153       C  0.32115107  0.06356413  0.69218189    -0.33100
C2154       C  0.33193598  0.07838461  0.66239736     0.35900
H2155       H  0.41431937  0.08767122  0.68138529     0.16300
O2156       O  0.40031188  0.06012375  0.73927722    -0.60600
H2157       H  0.29496687  0.05762496  0.69537276     0.16300
O2158       O  0.30920502  0.08577740  0.63780814    -0.60700
H2159       H  0.29911605  0.10732922  0.64440825     0.43300
H2160       H  0.41595168  0.07920053  0.74001265     0.43300
C2161       C  0.43605787  0.23963391  0.78335751    -0.05800
C2162       C  0.40744763  0.21978342  0.77765236    -0.33200
C2163       C  0.39682961  0.21191472  0.74520755     0.36000
C2164       C  0.41444013  0.22423713  0.71755471    -0.06200
C2165       C  0.44201517  0.24525922  0.72303270    -0.33100
C2166       C  0.45288220  0.25294033  0.75543642     0.35900
H2167       H  0.39375526  0.20916041  0.79845787     0.16300
O2168       O  0.37046243  0.19064830  0.74091085    -0.60600
H2169       H  0.45597046  0.25495635  0.70191917     0.16300
O2170       O  0.48048726  0.27266148  0.75932543    -0.60700
H2171       H  0.49976935  0.25714968  0.75894989     0.43300
H2172       H  0.38048658  0.16806448  0.74029631     0.43300
C2173       C  0.29722500  0.33135141  0.62298385    -0.05800
C2174       C  0.33149565  0.33953882  0.62160466    -0.33200
C2175       C  0.35618504  0.31434387  0.62008609     0.36000
C2176       C  0.34652075  0.28067828  0.62013218    -0.06200
C2177       C  0.31272676  0.27314897  0.62645646    -0.33100
C2178       C  0.28844817  0.29792865  0.62817296     0.35900
H2179       H  0.33904091  0.36522246  0.61870426     0.16300
O2180       O  0.38915705  0.32285713  0.61685904    -0.60600
H2181       H  0.30459493  0.24754387  0.62874621     0.16300
O2182       O  0.25562674  0.28887067  0.63172174    -0.60700
H2183       H  0.25125166  0.28968232  0.65611859     0.43300
H2184       H  0.39210615  0.32913796  0.59305126     0.43300
C2185       C  0.47549176  0.21590058  0.52334516    -0.05800
C2186       C  0.49443158  0.24424238  0.53104726    -0.33200
C2187       C  0.51276735  0.26136606  0.50662217     0.36000
C2188       C  0.51171508  0.25151690  0.47272571    -0.06200
C2189       C  0.49576400  0.22101111  0.46547143    -0.33100
C2190       C  0.47832553  0.20293978  0.49065001     0.35900
H2191       H  0.49430319  0.25396717  0.55628864     0.16300
O2192       O  0.52969712  0.28946953  0.51591136    -0.60600
H2193       H  0.49489243  0.21218313  0.43996349     0.16300
O2194       O  0.46228935  0.17406451  0.48240985    -0.60700
H2195       H  0.47943344  0.15637523  0.48459903     0.43300
H2196       H  0.55280149  0.28186474  0.52051403     0.43300
C2197       C  0.60310340  0.42831844  0.09085809    -0.05800
C2198       C  0.60212810  0.39542709  0.07941666    -0.33200
C2199       C  0.63069470  0.38089005  0.06560499     0.36000
C2200       C  0.66023188  0.39962792  0.06324907    -0.06200
C2201       C  0.65971040  0.43361819  0.07094374    -0.33100
C2202       C  0.63128751  0.44802677  0.08465444     0.35900
H2203       H  0.58067065  0.37992185  0.08483502     0.16300
O2204       O  0.63031495  0.34779728  0.05738216    -0.60600
H2205       H  0.68190609  0.44871041  0.06782205     0.16300
O2206       O  0.63219573  0.48057235  0.09490319    -0.60700
H2207       H  0.64456410  0.48039102  0.11637891     0.43300
H2208       H  0.63738345  0.33587840  0.07795889     0.43300
C2209       C  0.66240486  0.47609496  0.22776173    -0.05800
C2210       C  0.68680570  0.45151029  0.23297646    -0.33200
C2211       C  0.71939862  0.46023525  0.24291383     0.36000
C2212       C  0.72805306  0.49399531  0.24824962    -0.06200
C2213       C  0.70319964  0.51817226  0.24504943    -0.33100
C2214       C  0.67101101  0.50973713  0.23460854     0.35900
H2215       H  0.68097096  0.42563405  0.22836105     0.16300
O2216       O  0.74290767  0.43562316  0.24632925    -0.60600
H2217       H  0.70921298  0.54419537  0.24862893     0.16300
O2218       O  0.64820300  0.53500605  0.23095256    -0.60700
H2219       H  0.65293440  0.54493420  0.20868971     0.43300
H2220       H  0.74176313  0.42882525  0.27016748     0.43300
C2221       C  0.56053812  0.36009161  0.34092424    -0.05800
C2222       C  0.56679409  0.34896290  0.30840607    -0.33200
C2223       C  0.56776945  0.37092869  0.28132106     0.36000
C2224       C  0.56248272  0.40553397  0.28590841    -0.06200
C2225       C  0.56071000  0.41741840  0.31891088    -0.33100
C2226       C  0.55986081  0.39494503  0.34649276     0.35900
H2227       H  0.56851837  0.32251156  0.30346699     0.16300
O2228       O  0.57367237  0.35795735  0.25014210    -0.60600
H2229       H  0.55842345  0.44389843  0.32327909     0.16300
O2230       O  0.55796606  0.40702417  0.37855584    -0.60700
H2231       H  0.54126425  0.42529124  0.37831858     0.43300
H2232       H  0.55236328  0.34744480  0.24330626     0.43300
C2233       C  0.46647382  0.53185525  0.22470343    -0.05800
C2234       C  0.43576447  0.53906738  0.20870195    -0.33200
C2235       C  0.40979243  0.55694738  0.22540976     0.36000
C2236       C  0.41380521  0.56752969  0.25893686    -0.06200
C2237       C  0.44571027  0.56317832  0.27313366    -0.33100
C2238       C  0.47134136  0.54586425  0.25684203     0.35900
H2239       H  0.43142455  0.53001546  0.18362004     0.16300
O2240       O  0.38030388  0.56276663  0.20912195    -0.60600
H2241       H  0.45060030  0.57165457  0.29834696     0.16300
O2242       O  0.50098790  0.54197901  0.27357006    -0.60700
H2243       H  0.51516565  0.56073980  0.26594877     0.43300
H2244       H  0.38404667  0.58346998  0.19609166     0.43300
C2245       C  0.54667118  0.58292313  0.88634141    -0.05800
C2246       C  0.57543940  0.56367096  0.89118708    -0.33200
C2247       C  0.59040322  0.54782661  0.86392754     0.36000
C2248       C  0.57675590  0.55218841  0.83180985    -0.06200
C2249       C  0.54593411  0.56803368  0.82789557    -0.33100
C2250       C  0.53057703  0.58300580  0.85511467     0.35900
H2251       H  0.58820401  0.56391147  0.91506663     0.16300
O2252       O  0.61999323  0.53117849  0.86826252    -0.60600
H2253       H  0.53428912  0.56972560  0.80348170     0.16300
O2254       O  0.50141378  0.60042342  0.85048596    -0.60700
H2255       H  0.50788920  0.62130789  0.83891459     0.43300
H2256       H  0.61355823  0.50828391  0.87491771     0.43300
C2257       C  0.77386188  0.56507831  0.72771766    -0.05800
C2258       C  0.76677660  0.53734971  0.74816472    -0.33200
C2259       C  0.73389966  0.52838123  0.75607923     0.36000
C2260       C  0.70703318  0.54707751  0.74325322    -0.06200
C2261       C  0.71434743  0.57605281  0.72435068    -0.33100
C2262       C  0.74733383  0.58493359  0.71642702     0.35900
H2263       H  0.78695147  0.52167421  0.75709319     0.16300
O2264       O  0.72844357  0.50009847  0.77454615    -0.60600
H2265       H  0.69435365  0.59120043  0.71423632     0.16300
O2266       O  0.75313213  0.61171465  0.69589235    -0.60700
H2267       H  0.75394471  0.60246482  0.67293426     0.43300
H2268       H  0.73231680  0.50667352  0.79808671     0.43300
C2269       C  0.49505570  0.83031781  0.63738457    -0.05800
C2270       C  0.50192959  0.83310796  0.60311142    -0.33200
C2271       C  0.51612530  0.86186747  0.59021001     0.36000
C2272       C  0.52453160  0.88786018  0.61180035    -0.06200
C2273       C  0.51411675  0.88684359  0.64530810    -0.33100
C2274       C  0.49898864  0.85813925  0.65821002     0.35900
H2275       H  0.49817111  0.81211087  0.58659380     0.16300
O2276       O  0.52598178  0.86249886  0.55740892    -0.60600
H2277       H  0.52099468  0.90668922  0.66221596     0.16300
O2278       O  0.49125374  0.85641667  0.69159015    -0.60700
H2279       H  0.51219850  0.84944762  0.70283803     0.43300
H2280       H  0.50841387  0.87552478  0.54579937     0.43300
C2281       C  0.48528237  0.62484039  0.66741297    -0.05800
C2282       C  0.49231650  0.59939238  0.64456422    -0.33200
C2283       C  0.50544531  0.56909737  0.65586322     0.36000
C2284       C  0.51126565  0.56441943  0.69033713    -0.06200
C2285       C  0.49876150  0.58780266  0.71314488    -0.33100
C2286       C  0.48620478  0.61811574  0.70192649     0.35900
H2287       H  0.49077321  0.60408617  0.61790699     0.16300
O2288       O  0.51642460  0.54632326  0.63287851    -0.60600
H2289       H  0.50207826  0.58419516  0.73981902     0.16300
O2290       O  0.47826763  0.64231488  0.72479233    -0.60700
H2291       H  0.45911452  0.63351840  0.73777366     0.43300
H2292       H  0.49642658  0.53306815  0.62705095     0.43300
C2293       C  0.50918776  0.71043106  0.82484730    -0.05800
C2294       C  0.52865703  0.73225887  0.80556327    -0.33200
C2295       C  0.51867963  0.74137363  0.77296107     0.36000
C2296       C  0.48857517  0.72896273  0.75930776    -0.06200
C2297       C  0.46974838  0.70649937  0.77828218    -0.33100
C2298       C  0.47980761  0.69706308  0.81043756     0.35900
H2299       H  0.55089939  0.74325026  0.81617930     0.16300
O2300       O  0.53767119  0.76373575  0.75534494    -0.60600
H2301       H  0.44718842  0.69577976  0.76800426     0.16300
O2302       O  0.46083768  0.67420447  0.82752820    -0.60700
H2303       H  0.44066392  0.68647514  0.83499173     0.43300
H2304       H  0.55543841  0.75025660  0.74462151     0.43300
C2305       C  0.77507057  0.63630716  0.55797265    -0.05800
C2306       C  0.77579504  0.60222607  0.56551789    -0.33200
C2307       C  0.80371730  0.58800349  0.58037118     0.36000
C2308       C  0.83106042  0.60800547  0.58861716    -0.06200
C2309       C  0.83183569  0.64135708  0.57818689    -0.33100
C2310       C  0.80396971  0.65559592  0.56252011     0.35900
H2311       H  0.75404110  0.58683113  0.56118284     0.16300
O2312       O  0.80263866  0.55532623  0.59010360    -0.60600
H2313       H  0.85265042  0.65708981  0.58505402     0.16300
O2314       O  0.80423966  0.68878445  0.55445368    -0.60700
H2315       H  0.79598481  0.70036186  0.57470756     0.43300
H2316       H  0.81555035  0.54335998  0.57274054     0.43300
C2317       C  0.57386684  0.68368053  0.53132168    -0.05800
C2318       C  0.54490595  0.66424976  0.52974641    -0.33200
C2319       C  0.51440040  0.67763199  0.54000966     0.36000
C2320       C  0.51338898  0.71027289  0.55247833    -0.06200
C2321       C  0.54060450  0.73138344  0.54739490    -0.33100
C2322       C  0.57092459  0.71829542  0.53656326     0.35900
H2323       H  0.54646491  0.63791631  0.52428271     0.16300
O2324       O  0.48755435  0.65686654  0.54397610    -0.60600
H2325       H  0.53977001  0.75678181  0.55641015     0.16300
O2326       O  0.59822616  0.73879976  0.53492881    -0.60700
H2327       H  0.60056859  0.74464916  0.51092377     0.43300
H2328       H  0.47157258  0.66356777  0.52626234     0.43300
C2329       C  0.68283823  0.76288667  0.54726599    -0.05800
C2330       C  0.67224205  0.76872114  0.58051528    -0.33200
C2331       C  0.66246614  0.80069379  0.59107369     0.36000
C2332       C  0.66347355  0.82737914  0.56834605    -0.06200
C2333       C  0.67603599  0.82163524  0.53585389    -0.33100
C2334       C  0.68545855  0.79000490  0.52527968     0.35900
H2335       H  0.67021357  0.74820990  0.59803422     0.16300
O2336       O  0.65085165  0.80518432  0.62300283    -0.60600
H2337       H  0.67788852  0.84183167  0.51792566     0.16300
O2338       O  0.69643431  0.78589220  0.49304830    -0.60700
H2339       H  0.72101111  0.78858213  0.49414961     0.43300
H2340       H  0.62634515  0.80205257  0.62153060     0.43300
C2341       C  0.65474263  0.56074911  0.57198505    -0.05800
C2342       C  0.67609395  0.55706369  0.59943330    -0.33200
C2343       C  0.66507440  0.54027078  0.62783545     0.36000
C2344       C  0.63251365  0.52758404  0.62848521    -0.06200
C2345       C  0.61316081  0.52704928  0.59943354    -0.33100
C2346       C  0.62425446  0.54363507  0.57091824     0.35900
H2347       H  0.69962095  0.57031949  0.60023439     0.16300
O2348       O  0.68470141  0.53951873  0.65590250    -0.60600
H2349       H  0.58810952  0.51691897  0.59998452     0.16300
O2350       O  0.60291065  0.54761129  0.54440325    -0.60700
H2351       H  0.61158130  0.53255092  0.52682192     0.43300
H2352       H  0.69825613  0.51894941  0.65382045     0.43300
C2353       C  0.33129451  0.60769506  0.95809340    -0.05800
C2354       C  0.33210841  0.64085850  0.96891808    -0.33200
C2355       C  0.30349940  0.65540408  0.98279431     0.36000
C2356       C  0.27423300  0.63634239  0.98574331    -0.06200
C2357       C  0.27516494  0.60220362  0.97874910    -0.33100
C2358       C  0.30345962  0.58788509  0.96498133     0.35900
H2359       H  0.35340613  0.65641459  0.96304191     0.16300
O2360       O  0.30353844  0.68864173  0.99041108    -0.60600
H2361       H  0.25315011  0.58689253  0.98206701     0.16300
O2362       O  0.30199979  0.55577112  0.95375678    -0.60700
H2363       H  0.30616337  0.54194703  0.97387801     0.43300
H2364       H  0.29536069  0.70005139  0.96995745     0.43300
C2365       C  0.27728294  0.55967461  0.81592236    -0.05800
C2366       C  0.27205818  0.52691420  0.80411052    -0.33200
C2367       C  0.24022863  0.51558706  0.79532503     0.36000
C2368       C  0.21291108  0.53710893  0.79797264    -0.06200
C2369       C  0.21854528  0.57069808  0.80667313    -0.33100
C2370       C  0.25041113  0.58204074  0.81558937     0.35900
H2371       H  0.29253643  0.50928580  0.80325637     0.16300
O2372       O  0.23578402  0.48290644  0.78669225    -0.60600
H2373       H  0.19766705  0.58777669  0.80857258     0.16300
O2374       O  0.25449203  0.61431593  0.82575209    -0.60700
H2375       H  0.24967091  0.61412282  0.85008088     0.43300
H2376       H  0.23633467  0.47040671  0.80810537     0.43300
C2377       C  0.38415013  0.67158520  0.70580008    -0.05800
C2378       C  0.39229697  0.63729966  0.70352975    -0.33200
C2379       C  0.39096974  0.61593373  0.73155215     0.36000
C2380       C  0.38162017  0.62846769  0.76293731    -0.06200
C2381       C  0.37198132  0.66225308  0.76492798    -0.33100
C2382       C  0.37295290  0.68353610  0.73692755     0.35900
H2383       H  0.40158307  0.62714388  0.68024923     0.16300
O2384       O  0.40172859  0.58368490  0.72852160    -0.60600
H2385       H  0.36403113  0.67252072  0.78865840     0.16300
O2386       O  0.36454408  0.71636003  0.74088163    -0.60700
H2387       H  0.34036898  0.71756937  0.73569697     0.43300
H2388       H  0.38252784  0.57143352  0.71901260     0.43300
C2389       C  0.52152336  0.46843417  0.79106981    -0.05800
C2390       C  0.52727960  0.48016706  0.82390595    -0.33200
C2391       C  0.50162183  0.49616222  0.84263481     0.36000
C2392       C  0.46971360  0.50134406  0.82840054    -0.06200
C2393       C  0.46334531  0.48624856  0.79733323    -0.33100
C2394       C  0.48839522  0.47004260  0.77901482     0.35900
H2395       H  0.55219073  0.47903598  0.83427258     0.16300
O2396       O  0.50882370  0.50860409  0.87363698    -0.60600
H2397       H  0.43873310  0.48801533  0.78624854     0.16300
O2398       O  0.48038058  0.45689923  0.74840738    -0.60700
H2399       H  0.47681073  0.47628860  0.73338807     0.43300
H2400       H  0.50136088  0.49122365  0.88961842     0.43300
C2401       C  0.57559315  0.98719481  0.32940950    -0.05800
C2402       C  0.59313489  0.98824376  0.35967121    -0.33200
C2403       C  0.57910060  0.97399094  0.38828706     0.36000
C2404       C  0.54737440  0.95930531  0.38620251    -0.06200
C2405       C  0.52787633  0.96358153  0.35770960    -0.33100
C2406       C  0.54186955  0.97698475  0.32909655     0.35900
H2407       H  0.61872721  0.99687006  0.36033776     0.16300
O2408       O  0.59846528  0.96969769  0.41624586    -0.60600
H2409       H  0.50341639  0.95215336  0.35614345     0.16300
O2410       O  0.52343889  0.97636453  0.30020687    -0.60700
H2411       H  0.51933524  0.99986921  0.29406711     0.43300
H2412       H  0.58929318  0.98542266  0.43297684     0.43300
C2413       C  0.49628702  0.79805484  0.25688415    -0.05800
C2414       C  0.52613580  0.81594401  0.26282979    -0.33200
C2415       C  0.53556996  0.82554387  0.29531533     0.36000
C2416       C  0.51505147  0.81750889  0.32262773    -0.06200
C2417       C  0.48663871  0.79765054  0.31697088    -0.33100
C2418       C  0.47743168  0.78765018  0.28475231     0.35900
H2419       H  0.54154455  0.82395074  0.24204824     0.16300
O2420       O  0.56376866  0.84428494  0.29973345    -0.60600
H2421       H  0.47060589  0.79078397  0.33771643     0.16300
O2422       O  0.44841965  0.77006536  0.28078070    -0.60700
H2423       H  0.45533981  0.74637263  0.28054666     0.43300
H2424       H  0.55605476  0.86773387  0.29910212     0.43300
C2425       C  0.57857888  0.76419931  0.42791480    -0.05800
C2426       C  0.56608573  0.73177987  0.43068477    -0.33200
C2427       C  0.58787277  0.70425399  0.43291151     0.36000
C2428       C  0.62317622  0.70869691  0.43299026    -0.06200
C2429       C  0.63539869  0.74076645  0.42695397    -0.33100
C2430       C  0.61365798  0.76814536  0.42422086     0.35900
H2431       H  0.53940802  0.72778826  0.43244430     0.16300
O2432       O  0.57417151  0.67326233  0.43695207    -0.60600
H2433       H  0.66206804  0.74511467  0.42626431     0.16300
O2434       O  0.62715010  0.79885283  0.41773455    -0.60700
H2435       H  0.63694887  0.80625500  0.43921727     0.43300
H2436       H  0.57249938  0.66407059  0.41403070     0.43300
C2437       C  0.44751203  0.81956343  0.51686282    -0.05800
C2438       C  0.43876866  0.83791702  0.54554363    -0.33200
C2439       C  0.42340670  0.82257033  0.57355816     0.36000
C2440       C  0.41595409  0.78806693  0.57352275    -0.06200
C2441       C  0.42181539  0.77062254  0.54366011    -0.33100
C2442       C  0.43765754  0.78565349  0.51601946     0.35900
H2443       H  0.44502025  0.86406883  0.54691415     0.16300
O2444       O  0.41734974  0.84135139  0.60146880    -0.60600
H2445       H  0.41604637  0.74435607  0.54228147     0.16300
O2446       O  0.44450129  0.76623461  0.48872307    -0.60700
H2447       H  0.42437320  0.76787423  0.47440637     0.43300
H2448       H  0.39568583  0.85252906  0.59713215     0.43300
C2449       C  0.89829458  0.37836499  0.60745199    -0.05800
C2450       C  0.91308015  0.37928187  0.63920938    -0.33200
C2451       C  0.92608718  0.35015048  0.65352810     0.36000
C2452       C  0.92398981  0.31993295  0.63584141    -0.06200
C2453       C  0.91243454  0.32015704  0.60277011    -0.33100
C2454       C  0.89964282  0.34904375  0.58858742     0.35900
H2455       H  0.91125625  0.40157300  0.65427723     0.16300
O2456       O  0.93848115  0.35109197  0.68547220    -0.60600
H2457       H  0.91206758  0.29752498  0.58816128     0.16300
O2458       O  0.88547040  0.34776368  0.55735500    -0.60700
H2459       H  0.86334539  0.33715693  0.56060919     0.43300
H2460       H  0.91921811  0.34592240  0.70018581     0.43300
C2461       C  0.76363173  0.32486446  0.56525933    -0.05800
C2462       C  0.75231637  0.31912782  0.53241082    -0.33200
C2463       C  0.74420772  0.28738142  0.52144226     0.36000
C2464       C  0.74620557  0.26041645  0.54365973    -0.06200
C2465       C  0.75612149  0.26616248  0.57705527    -0.33100
C2466       C  0.76496463  0.29816023  0.58788022     0.35900
H2467       H  0.75049398  0.33939055  0.51454441     0.16300
O2468       O  0.73410365  0.28313096  0.48897528    -0.60600
H2469       H  0.75820286  0.24560469  0.59452140     0.16300
O2470       O  0.77681263  0.30256195  0.61969768    -0.60700
H2471       H  0.75678450  0.30726674  0.63349074     0.43300
H2472       H  0.75484950  0.28441673  0.47543827     0.43300
C2473       C  0.70686328  0.42559958  0.63398581    -0.05800
C2474       C  0.71399773  0.41838960  0.66773087    -0.33200
C2475       C  0.68929301  0.41882873  0.69239387     0.36000
C2476       C  0.65589847  0.42573267  0.68398471    -0.06200
C2477       C  0.64783575  0.42914993  0.64966454    -0.33100
C2478       C  0.67311567  0.42963597  0.62477455     0.35900
H2479       H  0.73946535  0.41368236  0.67556672     0.16300
O2480       O  0.69837128  0.41381626  0.72513034    -0.60600
H2481       H  0.62231340  0.43410392  0.64229575     0.16300
O2482       O  0.66470021  0.43595249  0.59214489    -0.60700
H2483       H  0.66668427  0.46041881  0.58948097     0.43300
H2484       H  0.70991293  0.43451477  0.73199313     0.43300
C2485       C  0.76611430  0.51994241  0.50828683    -0.05800
C2486       C  0.78517000  0.54794735  0.49900859    -0.33200
C2487       C  0.77028176  0.57602761  0.48328884     0.36000
C2488       C  0.73563035  0.57658732  0.47600619    -0.06200
C2489       C  0.71736513  0.54756273  0.48288524    -0.33100
C2490       C  0.73190132  0.51990501  0.49886988     0.35900
H2491       H  0.81157035  0.54857599  0.50474343     0.16300
O2492       O  0.78991048  0.60270857  0.47483056    -0.60600
H2493       H  0.69090446  0.54673260  0.47744970     0.16300
O2494       O  0.71171892  0.49329766  0.50608708    -0.60700
H2495       H  0.71128313  0.47985257  0.48534835     0.43300
H2496       H  0.79790043  0.61211930  0.49623497     0.43300
loop_ 
_geom_bond_atom_site_label_1 
_geom_bond_atom_site_label_2 
_geom_bond_distance 
_geom_bond_site_symmetry_2 
_ccdc_geom_bond_type 
O1          Cr19   2.090       .  S
O1            C9   1.286       .  A
O2          Cr19   1.965       .  S
O2            C3   1.259       .  A
C3            O4   1.280       .  A
C3         C2485   1.518       .  S
O4          Cr20   2.067       .  S
O5          Cr20   1.963       .  S
O5            C6   1.261       .  A
C6            O7   1.268       .  A
C6          C722   1.492       .  S
O7          Cr21   2.059       .  S
O8          Cr21   1.944       .  S
O8            C9   1.259       .  A
C9         C2473   1.500       .  S
O10         Cr19   1.924       .  S
O10          C18   1.241       .  A
O11         Cr19   2.063       .  S
O11          C12   1.277       .  A
C12          O13   1.252       .  A
C12         C270   1.500       .  S
O13         Cr20   1.950       .  S
O14         Cr20   2.040       .  S
O14          C15   1.273       .  A
C15          O16   1.254       .  A
C15        C2449   1.450       .  S
O16         Cr21   1.920       .  S
O17         Cr21   2.058       .  S
O17          C18   1.270       .  A
C18        C2461   1.477       .  S
Cr19         O22   1.764       .  S
Cr20         O22   1.761       .  S
Cr21         O22   1.777       .  S
O23         Cr41   2.086       .  S
O23          C31   1.288       .  A
O24         Cr41   1.977       .  S
O24          C25   1.259       .  A
C25          O26   1.276       .  A
C25        C2437   1.518       .  S
O26         Cr42   2.054       .  S
O27         Cr42   1.976       .  S
O27          C28   1.267       .  A
C28          O29   1.272       .  A
C28         C326   1.501       .  S
O29         Cr43   2.062       .  S
O30         Cr43   1.946       .  S
O30          C31   1.259       .  A
C31        C2425   1.504       .  S
O32         Cr41   1.942       .  S
O32          C40   1.244       .  A
O33         Cr41   2.072       .  S
O33          C34   1.280       .  A
C34          O35   1.254       .  A
C34         C952   1.510       .  S
O35         Cr42   1.962       .  S
O36         Cr42   2.011       .  S
O36          C37   1.264       .  A
C37          O38   1.258       .  A
C37        C2404   1.440       .  S
O38         Cr43   1.936       .  S
O39         Cr43   2.063       .  S
O39          C40   1.270       .  A
C40        C2416   1.489       .  S
Cr41         O44   1.773       .  S
Cr42         O44   1.773       .  S
Cr43         O44   1.779       .  S
O45         Cr63   2.080       .  S
O45          C53   1.287       .  A
O46         Cr63   1.960       .  S
O46          C47   1.256       .  A
C47          O48   1.278       .  A
C47        C2392   1.514       .  S
O48         Cr64   2.074       .  S
O49         Cr64   1.963       .  S
O49          C50   1.267       .  A
C50          O51   1.273       .  A
C50         C986   1.490       .  S
O51         Cr65   2.063       .  S
O52         Cr65   1.950       .  S
O52          C53   1.260       .  A
C53        C2380   1.500       .  S
O54         Cr63   1.926       .  S
O54          C62   1.240       .  A
O55         Cr63   2.065       .  S
O55          C56   1.279       .  A
C56          O57   1.252       .  A
C56         C688   1.500       .  S
O57         Cr64   1.952       .  S
O58         Cr64   2.027       .  S
O58          C59   1.268       .  A
C59          O60   1.256       .  A
C59        C2353   1.448       .  S
O60         Cr65   1.940       .  S
O61         Cr65   2.064       .  S
O61          C62   1.272       .  A
C62        C2365   1.486       .  S
Cr63         O66   1.762       .  S
Cr64         O66   1.769       .  S
Cr65         O66   1.777       .  S
O67         Cr85   2.035       .  S
O67          C75   1.276       .  A
O68         Cr85   1.999       .  S
O68          C69   1.262       .  A
C69          O70   1.254       .  A
C69        C2329   1.485       .  S
O70         Cr86   1.987       .  S
O71         Cr86   1.953       .  S
O71          C72   1.264       .  A
C72          O73   1.275       .  A
C72        C2317   1.470       .  S
O73         Cr87   2.015       .  S
O74         Cr87   1.948       .  S
O74          C75   1.250       .  A
C75        C2428   1.504       .  S
O76         Cr85   2.004       .  S
O76          C84   1.261       .  A
O77         Cr85   2.021       .  S
O77          C78   1.274       .  A
C78          O79   1.264       .  A
C78        C2305   1.464       .  S
O79         Cr86   1.951       .  S
O80         Cr86   1.978       .  S
O80          C81   1.255       .  A
C81          O82   1.247       .  A
C81        C2341   1.445       .  S
O82         Cr87   1.967       .  S
O83         Cr87   1.994       .  S
O83          C84   1.266       .  A
C84        C2488   1.513       .  S
Cr85         O88   1.769       .  S
Cr86         O88   1.761       .  S
Cr87         O88   1.778       .  S
O89        Cr107   2.021       .  S
O89          C97   1.273       .  A
O90        Cr107   2.002       .  S
O90          C91   1.263       .  A
C91          O92   1.258       .  A
C91        C2296   1.489       .  S
O92        Cr108   2.002       .  S
O93        Cr108   1.958       .  S
O93          C94   1.265       .  A
C94          O95   1.271       .  A
C94        C2281   1.463       .  S
O95        Cr109   2.010       .  S
O96        Cr109   1.961       .  S
O96          C97   1.253       .  A
C97        C2377   1.506       .  S
O98        Cr107   2.005       .  S
O98         C106   1.261       .  A
O99        Cr107   2.015       .  S
O99         C100   1.270       .  A
C100        O101   1.262       .  A
C100       C2269   1.463       .  S
O101       Cr108   1.949       .  S
O102       Cr108   1.982       .  S
O102        C103   1.259       .  A
C103        O104   1.250       .  A
C103       C2320   1.451       .  S
O104       Cr109   1.972       .  S
O105       Cr109   1.998       .  S
O105        C106   1.268       .  A
C106       C2440   1.515       .  S
Cr107       O110   1.775       .  S
Cr108       O110   1.756       .  S
Cr109       O110   1.782       .  S
O111       Cr129   1.974       .  S
O111        C119   1.251       .  A
O112       Cr129   2.031       .  S
O112        C113   1.274       .  A
C113        O114   1.256       .  A
C113       C2260   1.497       .  S
O114       Cr130   1.955       .  S
O115       Cr130   2.015       .  S
O115        C116   1.274       .  A
C116        O117   1.254       .  A
C116       C2344   1.446       .  S
O117       Cr131   1.942       .  S
O118       Cr131   1.991       .  S
O118        C119   1.259       .  A
C119       C2476   1.499       .  S
O120       Cr129   2.044       .  S
O120        C128   1.285       .  A
O121       Cr129   1.943       .  S
O121        C122   1.247       .  A
C122        O123   1.260       .  A
C122       C2248   1.454       .  S
O123       Cr130   1.983       .  S
O124       Cr130   1.958       .  S
O124        C125   1.247       .  A
C125        O126   1.255       .  A
C125       C2284   1.470       .  S
O126       Cr131   2.010       .  S
O127       Cr131   1.959       .  S
O127        C128   1.263       .  A
C128       C2389   1.513       .  S
Cr129       O132   1.781       .  S
Cr130       O132   1.757       .  S
Cr131       O132   1.802       .  S
O133       Cr151   1.969       .  S
O133        C141   1.260       .  A
O134       Cr151   2.092       .  S
O134        C135   1.286       .  A
C135        O136   1.255       .  A
C135       C2224   1.504       .  S
O136       Cr152   1.939       .  S
O137       Cr152   2.047       .  S
O137        C138   1.271       .  A
C138        O139   1.270       .  A
C138        C452   1.494       .  S
O139       Cr153   1.993       .  S
O140       Cr153   2.078       .  S
O140        C141   1.280       .  A
C141       C2233   1.525       .  S
O142       Cr151   2.060       .  S
O142        C150   1.278       .  A
O143       Cr151   1.940       .  S
O143        C144   1.242       .  A
C144        O145   1.271       .  A
C144       C2209   1.499       .  S
O145       Cr152   2.070       .  S
O146       Cr152   1.935       .  S
O146        C147   1.257       .  A
C147        O148   1.270       .  A
C147       C2197   1.448       .  S
O148       Cr153   2.028       .  S
O149       Cr153   1.963       .  S
O149        C150   1.254       .  A
C150        C798   1.504       .  S
Cr151       O154   1.764       .  S
Cr152       O154   1.768       .  S
Cr153       O154   1.774       .  S
O155       Cr173   1.969       .  S
O155        C163   1.261       .  A
O156       Cr173   2.076       .  S
O156        C157   1.280       .  A
C157        O158   1.253       .  A
C157       C2176   1.494       .  S
O158       Cr174   1.937       .  S
O159       Cr174   2.038       .  S
O159        C160   1.269       .  A
C160        O161   1.267       .  A
C160        C584   1.483       .  S
O161       Cr175   1.982       .  S
O162       Cr175   2.062       .  S
O162        C163   1.276       .  A
C163       C2185   1.508       .  S
O164       Cr173   2.055       .  S
O164        C172   1.277       .  A
O165       Cr173   1.940       .  S
O165        C166   1.247       .  A
C166        O167   1.273       .  A
C166       C2164   1.481       .  S
O167       Cr174   2.055       .  S
O168       Cr174   1.935       .  S
O168        C169   1.255       .  A
C169        O170   1.266       .  A
C169       C2149   1.445       .  S
O170       Cr175   2.020       .  S
O171       Cr175   1.959       .  S
O171        C172   1.255       .  A
C172        C402   1.493       .  S
Cr173       O176   1.776       .  S
Cr174       O176   1.766       .  S
Cr175       O176   1.772       .  S
O177       Cr195   1.961       .  S
O177        C185   1.258       .  A
O178       Cr195   2.076       .  S
O178        C179   1.280       .  A
C179        O180   1.252       .  A
C179       C2125   1.492       .  S
O180       Cr196   1.935       .  S
O181       Cr196   2.051       .  S
O181        C182   1.273       .  A
C182        O183   1.272       .  A
C182        C848   1.501       .  S
O183       Cr197   1.999       .  S
O184       Cr197   2.068       .  S
O184        C185   1.278       .  A
C185       C2137   1.507       .  S
O186       Cr195   2.054       .  S
O186        C194   1.277       .  A
O187       Cr195   1.929       .  S
O187        C188   1.242       .  A
C188        O189   1.275       .  A
C188       C2113   1.489       .  S
O189       Cr196   2.071       .  S
O190       Cr196   1.938       .  S
O190        C191   1.255       .  A
C191        O192   1.268       .  A
C191       C2104   1.451       .  S
O192       Cr197   2.026       .  S
O193       Cr197   1.966       .  S
O193        C194   1.257       .  A
C194        C534   1.503       .  S
Cr195       O198   1.774       .  S
Cr196       O198   1.762       .  S
Cr197       O198   1.771       .  S
O199       Cr217   2.038       .  S
O199        C207   1.281       .  A
O200       Cr217   1.934       .  S
O200        C201   1.246       .  A
C201        O202   1.260       .  A
C201       C2053   1.456       .  S
O202       Cr218   1.996       .  S
O203       Cr218   1.971       .  S
O203        C204   1.251       .  A
C204        O205   1.259       .  A
C204       C2065   1.460       .  S
O205       Cr219   2.003       .  S
O206       Cr219   1.957       .  S
O206        C207   1.262       .  A
C207       C2140   1.508       .  S
O208       Cr217   1.967       .  S
O208        C216   1.252       .  A
O209       Cr217   2.027       .  S
O209        C210   1.274       .  A
C210        O211   1.261       .  A
C210       C2089   1.503       .  S
O211       Cr218   1.975       .  S
O212       Cr218   2.013       .  S
O212        C213   1.271       .  A
C213        O214   1.257       .  A
C213       C2077   1.451       .  S
O214       Cr219   1.958       .  S
O215       Cr219   1.993       .  S
O215        C216   1.258       .  A
C216       C2173   1.488       .  S
Cr217       O220   1.779       .  S
Cr218       O220   1.764       .  S
Cr219       O220   1.797       .  S
O221       Cr239   2.037       .  S
O221        C229   1.281       .  A
O222       Cr239   1.934       .  S
O222        C223   1.246       .  A
C223        O224   1.262       .  A
C223       C2017   1.459       .  S
O224       Cr240   2.000       .  S
O225       Cr240   1.952       .  S
O225        C226   1.248       .  A
C226        O227   1.261       .  A
C226       C2080   1.464       .  S
O227       Cr241   2.014       .  S
O228       Cr241   1.957       .  S
O228        C229   1.259       .  A
C229       C2188   1.511       .  S
O230       Cr239   1.969       .  S
O230        C238   1.254       .  A
O231       Cr239   2.034       .  S
O231        C232   1.276       .  A
C232        O233   1.258       .  A
C232       C2041   1.501       .  S
O233       Cr240   1.965       .  S
O234       Cr240   2.016       .  S
O234        C235   1.271       .  A
C235        O236   1.249       .  A
C235       C2032   1.443       .  S
O236       Cr241   1.935       .  S
O237       Cr241   2.002       .  S
O237        C238   1.263       .  A
C238       C2221   1.498       .  S
Cr239       O242   1.775       .  S
Cr240       O242   1.762       .  S
Cr241       O242   1.796       .  S
O243       Cr261   2.042       .  S
O243        C251   1.283       .  A
O244       Cr261   1.932       .  S
O244        C245   1.244       .  A
C245        O246   1.262       .  A
C245       C1996   1.468       .  S
O246       Cr262   2.004       .  S
O247       Cr262   1.958       .  S
O247        C248   1.254       .  A
C248        O249   1.261       .  A
C248       C2029   1.462       .  S
O249       Cr263   2.000       .  S
O250       Cr263   1.953       .  S
O250        C251   1.258       .  A
C251       C2236   1.522       .  S
O252       Cr261   1.973       .  S
O252        C260   1.254       .  A
O253       Cr261   2.052       .  S
O253        C254   1.281       .  A
C254        O255   1.263       .  A
C254       C2005   1.511       .  S
O255       Cr262   1.982       .  S
O256       Cr262   2.013       .  S
O256        C257   1.268       .  A
C257        O258   1.255       .  A
C257       C2068   1.455       .  S
O258       Cr263   1.958       .  S
O259       Cr263   1.986       .  S
O259        C260   1.258       .  A
C260       C2128   1.488       .  S
Cr261       O264   1.773       .  S
Cr262       O264   1.760       .  S
Cr263       O264   1.797       .  S
O265       Cr283   2.030       .  S
O265        C273   1.271       .  A
O266       Cr283   2.023       .  S
O266        C267   1.281       .  A
C267        O268   1.271       .  A
C267       C1969   1.509       .  S
O268       Cr284   2.003       .  S
O269       Cr284   2.028       .  S
O269        C270   1.272       .  A
C270        O271   1.267       .  A
O271       Cr285   1.996       .  S
O272       Cr285   2.004       .  S
O272        C273   1.268       .  A
C273       C1981   1.511       .  S
O274       Cr283   2.057       .  S
O274        C282   1.268       .  A
O275       Cr283   1.973       .  S
O275        C276   1.251       .  A
C276        O277   1.267       .  A
C276       C1957   1.503       .  S
O277       Cr284   2.036       .  S
O278       Cr284   1.965       .  S
O278        C279   1.257       .  A
C279        O280   1.253       .  A
C279       C1945   1.438       .  S
O280       Cr285   1.967       .  S
O281       Cr285   1.992       .  S
O281        C282   1.263       .  A
C282        C842   1.512   1_655  S
Cr283       O286   1.781       .  S
Cr284       O286   1.785       .  S
Cr285       O286   1.780       .  S
O287       Cr305   1.973       .  S
O287        C295   1.260   1_455  A
O288       Cr305   2.062       .  S
O288        C289   1.283       .  A
C289        O290   1.260       .  A
C289       C1924   1.495       .  S
O290       Cr306   1.947       .  S
O291       Cr306   2.066       .  S
O291        C292   1.272       .  A
C292        O293   1.265   1_455  A
C292        C826   1.493   1_455  S
O293       Cr307   1.962   1_655  S
O294       Cr307   2.074   1_655  S
O294        C295   1.279       .  A
C295       C1936   1.524       .  S
O296       Cr305   2.051       .  S
O296        C304   1.276       .  A
O297       Cr305   1.928       .  S
O297        C298   1.242       .  A
C298        O299   1.270       .  A
C298       C1909   1.484       .  S
O299       Cr306   2.048       .  S
O300       Cr306   1.919       .  S
O300        C301   1.249       .  A
C301        O302   1.270       .  A
C301       C1897   1.449       .  S
O302       Cr307   2.034       .  S
O303       Cr307   1.942       .  S
O303        C304   1.250       .  A
C304        C424   1.491   1_545  S
Cr305       O308   1.766       .  S
Cr306       O308   1.777       .  S
Cr307       O308   1.768       .  S
O309       Cr327   1.973       .  S
O309        C317   1.261       .  A
O310       Cr327   2.090       .  S
O310        C311   1.285       .  A
C311        O312   1.258       .  A
C311       C1873   1.504       .  S
O312       Cr328   1.947       .  S
O313       Cr328   2.065       .  S
O313        C314   1.273       .  A
C314        O315   1.266       .  A
C314        C408   1.497   1_565  S
O315       Cr329   1.969       .  S
O316       Cr329   2.070       .  S
O316        C317   1.281       .  A
C317       C1885   1.519   1_565  S
O318       Cr327   2.063       .  S
O318        C326   1.278       .  A
O319       Cr327   1.928       .  S
O319        C320   1.242       .  A
C320        O321   1.273       .  A
C320       C2332   1.486       .  S
O321       Cr328   2.071       .  S
O322       Cr328   1.938       .  S
O322        C323   1.256       .  A
C323        O324   1.268       .  A
C323       C2272   1.451       .  S
O324       Cr329   2.028       .  S
O325       Cr329   1.960       .  S
O325        C326   1.252       .  A
Cr327       O330   1.768       .  S
Cr328       O330   1.775       .  S
Cr329       O330   1.763       .  S
O331       Cr349   2.000       .  S
O331        C339   1.261       .  A
O332       Cr349   2.006       .  S
O332        C333   1.269       .  A
C333        O334   1.262       .  A
C333       C1840   1.454       .  S
O334       Cr350   1.942       .  S
O335       Cr350   1.977       .  S
O335        C336   1.257       .  A
C336        O337   1.251       .  A
C336       C1852   1.449       .  S
O337       Cr351   1.974       .  S
O338       Cr351   2.001       .  S
O338        C339   1.269       .  A
C339       C1888   1.517       .  S
O340       Cr349   2.017       .  S
O340        C348   1.272       .  A
O341       Cr349   1.989       .  S
O341        C342   1.261       .  A
C342        O343   1.255       .  A
C342       C2464   1.477       .  S
O343       Cr350   1.984       .  S
O344       Cr350   1.950       .  S
O344        C345   1.262       .  A
C345        O346   1.272       .  A
C345       C1861   1.464       .  S
O346       Cr351   2.007       .  S
O347       Cr351   1.964       .  S
O347        C348   1.253       .  A
C348       C1972   1.508       .  S
Cr349       O352   1.772       .  S
Cr350       O352   1.759       .  S
Cr351       O352   1.778       .  S
O353       Cr371   1.996   1_455  S
O353        C361   1.260       .  A
O354       Cr371   2.006       .  S
O354        C355   1.269       .  A
C355        O356   1.264       .  A
C355       C2452   1.469       .  S
O356       Cr372   1.957       .  S
O357       Cr372   1.978       .  S
O357        C358   1.258       .  A
C358        O359   1.249       .  A
C358       C1864   1.444       .  S
O359       Cr373   1.968       .  S
O360       Cr373   1.996   1_455  S
O360        C361   1.267       .  A
C361       C1984   1.514       .  S
O362       Cr371   2.011   1_455  S
O362        C370   1.271       .  A
O363       Cr371   1.997       .  S
O363        C364   1.263       .  A
C364        O365   1.256       .  A
C364       C1825   1.483       .  S
O365       Cr372   1.996       .  S
O366       Cr372   1.967       .  S
O366        C367   1.267       .  A
C367        O368   1.272       .  A
C367       C1816   1.463       .  S
O368       Cr373   2.014       .  S
O369       Cr373   1.957   1_455  S
O369        C370   1.253       .  A
C370       C1921   1.498       .  S
Cr371       O374   1.773       .  S
Cr372       O374   1.755       .  S
Cr373       O374   1.783       .  S
O375       Cr393   2.053       .  S
O375        C383   1.288       .  A
O376       Cr393   1.933   1_545  S
O376        C377   1.244       .  A
C377        O378   1.259       .  A
C377       C1789   1.451       .  S
O378       Cr394   1.982       .  S
O379       Cr394   1.962       .  S
O379        C380   1.247       .  A
C380        O381   1.258       .  A
C380       C1813   1.467       .  S
O381       Cr395   2.009   1_545  S
O382       Cr395   1.957       .  S
O382        C383   1.263       .  A
C383       C1933   1.523       .  S
O384       Cr393   1.977       .  S
O384        C392   1.251       .  A
O385       Cr393   2.034   1_545  S
O385        C386   1.276       .  A
C386        O387   1.258       .  A
C386       C1801   1.497       .  S
O387       Cr394   1.955       .  S
O388       Cr394   2.016       .  S
O388        C389   1.273       .  A
C389        O390   1.256   1_545  A
C389       C1849   1.449       .  S
O390       Cr395   1.949       .  S
O391       Cr395   1.992       .  S
O391        C392   1.257       .  A
C392       C1876   1.500       .  S
Cr393       O396   1.780   1_565  S
Cr394       O396   1.759       .  S
Cr395       O396   1.803   1_565  S
O397       Cr415   2.082       .  S
O397        C405   1.285       .  A
O398       Cr415   1.975       .  S
O398        C399   1.261       .  A
C399        O400   1.273       .  A
C399       C1780   1.506       .  S
O400       Cr416   2.043       .  S
O401       Cr416   1.967       .  S
O401        C402   1.266       .  A
C402        O403   1.275       .  A
O403       Cr417   2.064       .  S
O404       Cr417   1.951       .  S
O404        C405   1.260       .  A
C405       C1765   1.506       .  S
O406       Cr415   1.935       .  S
O406        C414   1.244       .  A
O407       Cr415   2.064       .  S
O407        C408   1.279       .  A
C408        O409   1.253       .  A
O409       Cr416   1.953       .  S
O410       Cr416   2.011       .  S
O410        C411   1.263       .  A
C411        O412   1.256       .  A
C411       C1837   1.441       .  S
O412       Cr417   1.940       .  S
O413       Cr417   2.064       .  S
O413        C414   1.272       .  A
C414       C1804   1.485       .  S
Cr415       O418   1.770       .  S
Cr416       O418   1.770       .  S
Cr417       O418   1.773       .  S
O419       Cr437   2.070       .  S
O419        C427   1.286       .  A
O420       Cr437   1.986   1_554  S
O420        C421   1.263       .  A
C421        O422   1.277       .  A
C421       C1756   1.530   1_565  S
O422       Cr438   2.065   1_554  S
O423       Cr438   1.964       .  S
O423        C424   1.263       .  A
C424        O425   1.267       .  A
O425       Cr439   2.057       .  S
O426       Cr439   1.951       .  S
O426        C427   1.264       .  A
C427       C1744   1.498       .  S
O428       Cr437   1.944       .  S
O428        C436   1.244       .  A
O429       Cr437   2.050   1_554  S
O429        C430   1.275       .  A
C430        O431   1.252       .  A
C430        C666   1.494       .  S
O431       Cr438   1.948   1_554  S
O432       Cr438   2.032       .  S
O432        C433   1.271       .  A
C433        O434   1.255       .  A
C433       C1717   1.447       .  S
O434       Cr439   1.923       .  S
O435       Cr439   2.048       .  S
O435        C436   1.266       .  A
C436       C1729   1.485       .  S
Cr437       O440   1.768       .  S
Cr438       O440   1.775       .  S
Cr439       O440   1.788       .  S
O441       Cr459   2.022       .  S
O441        C449   1.278       .  A
O442       Cr459   2.014       .  S
O442        C443   1.269       .  A
C443        O444   1.275       .  A
C443       C1705   1.522       .  S
O444       Cr460   2.034       .  S
O445       Cr460   2.005       .  S
O445        C446   1.271       .  A
C446        O447   1.272       .  A
C446        C700   1.499       .  S
O447       Cr461   2.020       .  S
O448       Cr461   1.989       .  S
O448        C449   1.267       .  A
C449       C1693   1.487       .  S
O450       Cr459   1.976       .  S
O450        C458   1.251       .  A
O451       Cr459   2.037       .  S
O451        C452   1.267       .  A
C452        O453   1.261       .  A
O453       Cr460   1.990       .  S
O454       Cr460   1.998       .  S
O454        C455   1.258       .  A
C455        O456   1.250       .  A
C455       C1993   1.450       .  S
O456       Cr461   1.957       .  S
O457       Cr461   2.028       .  S
O457        C458   1.266       .  A
C458       C2044   1.499       .  S
Cr459       O462   1.779       .  S
Cr460       O462   1.779       .  S
Cr461       O462   1.783       .  S
O463       Cr481   1.970       .  S
O463        C471   1.251       .  A
O464       Cr481   2.036       .  S
O464        C465   1.277       .  A
C465        O466   1.257       .  A
C465       C2161   1.496       .  S
O466       Cr482   1.950       .  S
O467       Cr482   2.008       .  S
O467        C468   1.272       .  A
C468        O469   1.253       .  A
C468       C1684   1.447       .  S
O469       Cr483   1.943       .  S
O470       Cr483   1.996       .  S
O470        C471   1.260       .  A
C471       C1768   1.501       .  S
O472       Cr481   2.048       .  S
O472        C480   1.287       .  A
O473       Cr481   1.926       .  S
O473        C474   1.242       .  A
C474        O475   1.257       .  A
C474       C1657   1.444       .  S
O475       Cr482   1.976       .  S
O476       Cr482   1.961       .  S
O476        C477   1.246       .  A
C477        O478   1.259       .  A
C477       C1669   1.463       .  S
O478       Cr483   2.011       .  S
O479       Cr483   1.956       .  S
O479        C480   1.262       .  A
C480       C1708   1.522       .  S
Cr481       O484   1.780       .  S
Cr482       O484   1.760       .  S
Cr483       O484   1.803       .  S
O485       Cr503   2.007       .  S
O485        C493   1.269       .  A
O486       Cr503   2.006   1_545  S
O486        C487   1.265       .  A
C487        O488   1.254       .  A
C487       C1912   1.480       .  S
O488       Cr504   1.982       .  S
O489       Cr504   1.954       .  S
O489        C490   1.265       .  A
C490        O491   1.272       .  A
C490       C1648   1.463       .  S
O491       Cr505   2.015   1_545  S
O492       Cr505   1.971       .  S
O492        C493   1.256       .  A
C493       C1741   1.498       .  S
O494       Cr503   1.996       .  S
O494        C502   1.260       .  A
O495       Cr503   2.007   1_545  S
O495        C496   1.268       .  A
C496        O497   1.262       .  A
C496       C2152   1.459       .  S
O497       Cr504   1.952       .  S
O498       Cr504   1.961       .  S
O498        C499   1.254       .  A
C499        O500   1.255       .  A
C499       C1681   1.450       .  S
O500       Cr505   1.987   1_545  S
O501       Cr505   2.000       .  S
O501        C502   1.267       .  A
C502       C1777   1.508       .  S
Cr503       O506   1.770   1_565  S
Cr504       O506   1.752       .  S
Cr505       O506   1.780   1_565  S
O507       Cr525   1.974       .  S
O507        C515   1.250       .  A
O508       Cr525   2.028       .  S
O508        C509   1.275       .  A
C509        O510   1.261   1_554  A
C509       C1636   1.495   1_554  S
O510       Cr526   1.965       .  S
O511       Cr526   2.014       .  S
O511        C512   1.270   1_556  A
C512        O513   1.257       .  A
C512       C1672   1.458       .  S
O513       Cr527   1.967       .  S
O514       Cr527   1.984       .  S
O514        C515   1.260       .  A
C515       C1696   1.505       .  S
O516       Cr525   2.036       .  S
O516        C524   1.283       .  A
O517       Cr525   1.926       .  S
O517        C518   1.242   1_554  A
C518        O519   1.261       .  A
C518       C1900   1.455       .  S
O519       Cr526   1.997       .  S
O520       Cr526   1.963       .  S
O520        C521   1.254   1_556  A
C521        O522   1.260       .  A
C521       C1645   1.469   1_554  S
O522       Cr527   2.007       .  S
O523       Cr527   1.972       .  S
O523        C524   1.262       .  A
C524       C1753   1.528       .  S
Cr525       O528   1.790       .  S
Cr526       O528   1.758   1_556  S
Cr527       O528   1.800       .  S
O529       Cr547   2.082   1_455  S
O529        C537   1.285       .  A
O530       Cr547   1.965       .  S
O530        C531   1.258       .  A
C531        O532   1.280       .  A
C531       C1621   1.515       .  S
O532       Cr548   2.067   1_655  S
O533       Cr548   1.957       .  S
O533        C534   1.259       .  A
C534        O535   1.275       .  A
O535       Cr549   2.087       .  S
O536       Cr549   1.942       .  S
O536        C537   1.262       .  A
C537       C1609   1.497       .  S
O538       Cr547   1.946       .  S
O538        C546   1.248   1_655  A
O539       Cr547   2.065       .  S
O539        C540   1.279       .  A
C540        O541   1.250       .  A
C540        C710   1.492       .  S
O541       Cr548   1.945   1_655  S
O542       Cr548   2.045       .  S
O542        C543   1.273       .  A
C543        O544   1.248       .  A
C543       C1585   1.453       .  S
O544       Cr549   1.913       .  S
O545       Cr549   2.060       .  S
O545        C546   1.272       .  A
C546       C1600   1.487       .  S
Cr547       O550   1.765   1_655  S
Cr548       O550   1.767       .  S
Cr549       O550   1.767       .  S
O551       Cr569   2.088       .  S
O551        C559   1.287       .  A
O552       Cr569   1.958       .  S
O552        C553   1.258   1_565  A
C553        O554   1.280       .  A
C553       C1573   1.519       .  S
O554       Cr570   2.079   1_545  S
O555       Cr570   1.988       .  S
O555        C556   1.269       .  A
C556        O557   1.272       .  A
C556        C678   1.492       .  S
O557       Cr571   2.047       .  S
O558       Cr571   1.940       .  S
O558        C559   1.256       .  A
C559       C1561   1.505       .  S
O560       Cr569   1.926       .  S
O560        C568   1.240       .  A
O561       Cr569   2.065   1_545  S
O561        C562   1.279       .  A
C562        O563   1.252       .  A
C562        C930   1.505       .  S
O563       Cr570   1.953   1_545  S
O564       Cr570   2.033       .  S
O564        C565   1.271       .  A
C565        O566   1.252       .  A
C565       C1537   1.448       .  S
O566       Cr571   1.923       .  S
O567       Cr571   2.060       .  S
O567        C568   1.271       .  A
C568       C1549   1.485       .  S
Cr569       O572   1.764       .  S
Cr570       O572   1.776       .  S
Cr571       O572   1.769       .  S
O573       Cr591   2.014       .  S
O573        C581   1.276       .  A
O574       Cr591   2.028       .  S
O574        C575   1.270       .  A
C575        O576   1.274       .  A
C575       C1528   1.513       .  S
O576       Cr592   2.020       .  S
O577       Cr592   2.005       .  S
O577        C578   1.269       .  A
C578        O579   1.276       .  A
C578        C964   1.503       .  S
O579       Cr593   2.032       .  S
O580       Cr593   1.983       .  S
O580        C581   1.265       .  A
C581       C1513   1.478       .  S
O582       Cr591   1.979       .  S
O582        C590   1.255       .  A
O583       Cr591   2.027       .  S
O583        C584   1.264       .  A
C584        O585   1.259       .  A
O585       Cr592   1.983       .  S
O586       Cr592   2.005       .  S
O586        C587   1.260       .  A
C587        O588   1.250       .  A
C587       C2020   1.457       .  S
O588       Cr593   1.956       .  S
O589       Cr593   2.036       .  S
O589        C590   1.269       .  A
C590       C2092   1.503       .  S
Cr591       O594   1.784       .  S
Cr592       O594   1.771       .  S
Cr593       O594   1.781       .  S
O595       Cr613   1.977       .  S
O595        C603   1.253       .  A
O596       Cr613   2.065       .  S
O596        C597   1.283       .  A
C597        O598   1.253       .  A
C597       C2116   1.489       .  S
O598       Cr614   1.933       .  S
O599       Cr614   2.005       .  S
O599        C600   1.269       .  A
C600        O601   1.250       .  A
C600       C1504   1.454       .  S
O601       Cr615   1.949       .  S
O602       Cr615   1.994       .  S
O602        C603   1.265       .  A
C603       C1612   1.503       .  S
O604       Cr613   2.048       .  S
O604        C612   1.286       .  A
O605       Cr613   1.930       .  S
O605        C606   1.244       .  A
C606        O607   1.263       .  A
C606       C1480   1.464       .  S
O607       Cr614   2.001       .  S
O608       Cr614   1.956       .  S
O608        C609   1.254       .  A
C609        O610   1.267       .  A
C609       C1489   1.474       .  S
O610       Cr615   2.012       .  S
O611       Cr615   1.964       .  S
O611        C612   1.255       .  A
C612       C1525   1.510       .  S
Cr613       O616   1.785       .  S
Cr614       O616   1.755       .  S
Cr615       O616   1.803       .  S
O617       Cr635   2.018       .  S
O617        C625   1.274       .  A
O618       Cr635   2.012       .  S
O618        C619   1.266       .  A
C619        O620   1.257   1_655  A
C619       C1465   1.494       .  S
O620       Cr636   1.986       .  S
O621       Cr636   1.964   1_655  S
O621        C622   1.264       .  A
C622        O623   1.270       .  A
C622       C1453   1.458       .  S
O623       Cr637   2.013       .  S
O624       Cr637   1.968       .  S
O624        C625   1.256       .  A
C625       C1564   1.501       .  S
O626       Cr635   2.008       .  S
O626        C634   1.260       .  A
O627       Cr635   2.009       .  S
O627        C628   1.269       .  A
C628        O629   1.260   1_655  A
C628       C2101   1.468   1_655  S
O629       Cr636   1.952       .  S
O630       Cr636   1.972       .  S
O630        C631   1.259   1_455  A
C631        O632   1.255       .  A
C631       C1501   1.453   1_655  S
O632       Cr637   1.985       .  S
O633       Cr637   2.000       .  S
O633        C634   1.267       .  A
C634       C1624   1.514       .  S
Cr635       O638   1.774       .  S
Cr636       O638   1.754   1_455  S
Cr637       O638   1.780       .  S
O639       Cr657   1.970       .  S
O639        C647   1.249       .  A
O640       Cr657   2.036       .  S
O640        C641   1.276       .  A
C641        O642   1.259   1_545  A
C641       C1441   1.501   1_545  S
O642       Cr658   1.960       .  S
O643       Cr658   2.011       .  S
O643        C644   1.272   1_565  A
C644        O645   1.257       .  A
C644       C1492   1.450       .  S
O645       Cr659   1.956       .  S
O646       Cr659   1.978       .  S
O646        C647   1.259       .  A
C647       C1516   1.497       .  S
O648       Cr657   2.029       .  S
O648        C656   1.282       .  A
O649       Cr657   1.934       .  S
O649        C650   1.246   1_545  A
C650        O651   1.261       .  A
C650       C1432   1.465       .  S
O651       Cr658   1.996       .  S
O652       Cr658   1.962       .  S
O652        C653   1.250   1_565  A
C653        O654   1.258       .  A
C653       C1456   1.463   1_545  S
O654       Cr659   2.009       .  S
O655       Cr659   1.965       .  S
O655        C656   1.262       .  A
C656       C1576   1.518       .  S
Cr657       O660   1.791       .  S
Cr658       O660   1.757   1_565  S
Cr659       O660   1.805       .  S
O661       Cr679   2.015       .  S
O661        C669   1.270       .  A
O662       Cr679   2.018   1_455  S
O662        C663   1.279       .  A
C663        O664   1.269       .  A
C663       C1408   1.504       .  S
O664       Cr680   2.003       .  S
O665       Cr680   2.014       .  S
O665        C666   1.273       .  A
C666        O667   1.273       .  A
O667       Cr681   2.008   1_455  S
O668       Cr681   2.036       .  S
O668        C669   1.275       .  A
C669       C1417   1.526       .  S
O670       Cr679   2.027       .  S
O670        C678   1.262       .  A
O671       Cr679   1.970   1_455  S
O671        C672   1.251       .  A
C672        O673   1.264       .  A
C672       C1468   1.484       .  S
O673       Cr680   2.028       .  S
O674       Cr680   1.963       .  S
O674        C675   1.250       .  A
C675        O676   1.256       .  A
C675       C1429   1.451       .  S
O676       Cr681   1.996   1_455  S
O677       Cr681   1.993       .  S
O677        C678   1.261       .  A
Cr679       O682   1.777   1_655  S
Cr680       O682   1.787       .  S
Cr681       O682   1.780   1_655  S
O683       Cr701   1.982       .  S
O683        C691   1.261       .  A
O684       Cr701   2.086   1_556  S
O684        C685   1.289       .  A
C685        O686   1.265       .  A
C685       C1384   1.503       .  S
O686       Cr702   1.949       .  S
O687       Cr702   2.062       .  S
O687        C688   1.267       .  A
C688        O689   1.262       .  A
O689       Cr703   1.971       .  S
O690       Cr703   2.040   1_554  S
O690        C691   1.273       .  A
C691       C1393   1.516       .  S
O692       Cr701   2.059       .  S
O692        C700   1.277       .  A
O693       Cr701   1.947   1_556  S
O693        C694   1.244       .  A
C694        O695   1.265       .  A
C694       C1633   1.482       .  S
O695       Cr702   2.048       .  S
O696       Cr702   1.924       .  S
O696        C697   1.257       .  A
C697        O698   1.269       .  A
C697       C1660   1.439       .  S
O698       Cr703   2.017       .  S
O699       Cr703   1.944   1_554  S
O699        C700   1.252       .  A
Cr701       O704   1.774   1_554  S
Cr702       O704   1.779       .  S
Cr703       O704   1.775       .  S
O705       Cr723   1.977       .  S
O705        C713   1.261       .  A
O706       Cr723   2.089       .  S
O706        C707   1.285       .  A
C707        O708   1.256       .  A
C707       C1357   1.503       .  S
O708       Cr724   1.942       .  S
O709       Cr724   2.052       .  S
O709        C710   1.270       .  A
C710        O711   1.267       .  A
O711       Cr725   1.975       .  S
O712       Cr725   2.064       .  S
O712        C713   1.276       .  A
C713       C1369   1.504       .  S
O714       Cr723   2.063       .  S
O714        C722   1.279       .  A
O715       Cr723   1.940       .  S
O715        C716   1.247       .  A
C716        O717   1.271       .  A
C716       C2257   1.482       .  S
O717       Cr724   2.053       .  S
O718       Cr724   1.940       .  S
O718        C719   1.255       .  A
C719        O720   1.269       .  A
C719       C2308   1.454       .  S
O720       Cr725   2.031       .  S
O721       Cr725   1.944       .  S
O721        C722   1.252       .  A
Cr723       O726   1.777       .  S
Cr724       O726   1.770       .  S
Cr725       O726   1.769       .  S
O727       Cr745   2.004       .  S
O727        C735   1.260       .  A
O728       Cr745   2.012       .  S
O728        C729   1.270   1_554  A
C729        O730   1.261       .  A
C729       C2356   1.462       .  S
O730       Cr746   1.943       .  S
O731       Cr746   1.985       .  S
O731        C732   1.260       .  A
C732        O733   1.251   1_556  A
C732       C1336   1.451       .  S
O733       Cr747   1.968       .  S
O734       Cr747   1.995       .  S
O734        C735   1.267       .  A
C735       C1396   1.512       .  S
O736       Cr745   2.020       .  S
O736        C744   1.273       .  A
O737       Cr745   1.999       .  S
O737        C738   1.262       .  A
C738        O739   1.257   1_554  A
C738       C1732   1.481   1_554  S
O739       Cr746   2.000       .  S
O740       Cr746   1.959       .  S
O740        C741   1.264   1_556  A
C741        O742   1.267       .  A
C741       C1345   1.451       .  S
O742       Cr747   1.999       .  S
O743       Cr747   1.964       .  S
O743        C744   1.254       .  A
C744       C1405   1.503       .  S
Cr745       O748   1.774       .  S
Cr746       O748   1.758   1_556  S
Cr747       O748   1.780       .  S
O749       Cr767   2.041       .  S
O749        C757   1.284       .  A
O750       Cr767   1.935       .  S
O750        C751   1.244       .  A
C751        O752   1.259   1_655  A
C751       C1720   1.454   1_655  S
O752       Cr768   1.988   1_455  S
O753       Cr768   1.969       .  S
O753        C754   1.252       .  A
C754        O755   1.258       .  A
C754       C1348   1.462   1_655  S
O755       Cr769   1.994       .  S
O756       Cr769   1.959       .  S
O756        C757   1.261       .  A
C757       C1420   1.526       .  S
O758       Cr767   1.985       .  S
O758        C766   1.253       .  A
O759       Cr767   2.021       .  S
O759        C760   1.275       .  A
C760        O761   1.262   1_655  A
C760       C1597   1.496   1_655  S
O761       Cr768   1.974   1_455  S
O762       Cr768   2.010       .  S
O762        C763   1.270       .  A
C763        O764   1.257       .  A
C763       C1321   1.448       .  S
O764       Cr769   1.958       .  S
O765       Cr769   1.989       .  S
O765        C766   1.257       .  A
C766       C1360   1.502       .  S
Cr767       O770   1.778       .  S
Cr768       O770   1.763       .  S
Cr769       O770   1.803       .  S
O771       Cr789   2.043       .  S
O771        C779   1.282       .  A
O772       Cr789   1.917       .  S
O772        C773   1.243       .  A
C773        O774   1.271       .  A
C773       C1588   1.461       .  S
O774       Cr790   2.022       .  S
O775       Cr790   1.949       .  S
O775        C776   1.256       .  A
C776        O777   1.261       .  A
C776       C1324   1.461       .  S
O777       Cr791   1.999       .  S
O778       Cr791   1.987       .  S
O778        C779   1.260       .  A
C779       C1372   1.525       .  S
O780       Cr789   1.963       .  S
O780        C788   1.252       .  A
O781       Cr789   2.051       .  S
O781        C782   1.275       .  A
C782        O783   1.248       .  A
C782       C2368   1.478       .  S
O783       Cr790   1.927       .  S
O784       Cr790   2.000       .  S
O784        C785   1.268       .  A
C785        O786   1.254       .  A
C785       C1333   1.452       .  S
O786       Cr791   1.956       .  S
O787       Cr791   2.005       .  S
O787        C788   1.268       .  A
C788       C1381   1.505       .  S
Cr789       O792   1.789       .  S
Cr790       O792   1.763       .  S
Cr791       O792   1.794       .  S
O793       Cr811   2.083       .  S
O793        C801   1.285       .  A
O794       Cr811   1.983       .  S
O794        C795   1.263       .  A
C795        O796   1.274       .  A
C795       C1309   1.510       .  S
O796       Cr812   2.043       .  S
O797       Cr812   1.976       .  S
O797        C798   1.268       .  A
C798        O799   1.274       .  A
O799       Cr813   2.066       .  S
O800       Cr813   1.946       .  S
O800        C801   1.259       .  A
C801       C1300   1.506       .  S
O802       Cr811   1.946       .  S
O802        C810   1.247       .  A
O803       Cr811   2.058       .  S
O803        C804   1.277       .  A
C804        O805   1.252       .  A
C804        C974   1.496   1_554  S
O805       Cr812   1.950       .  S
O806       Cr812   2.008       .  S
O806        C807   1.263       .  A
C807        O808   1.253       .  A
C807       C1273   1.435       .  S
O808       Cr813   1.925       .  S
O809       Cr813   2.059       .  S
O809        C810   1.272       .  A
C810       C1288   1.489       .  S
Cr811       O814   1.779       .  S
Cr812       O814   1.774       .  S
Cr813       O814   1.771       .  S
O815       Cr833   2.074       .  S
O815        C823   1.285       .  A
O816       Cr833   1.965       .  S
O816        C817   1.258       .  A
C817        O818   1.277       .  A
C817       C1264   1.515   1_556  S
O818       Cr834   2.070       .  S
O819       Cr834   1.959       .  S
O819        C820   1.264       .  A
C820        O821   1.274       .  A
C820        C942   1.495   1_556  S
O821       Cr835   2.071       .  S
O822       Cr835   1.940       .  S
O822        C823   1.257       .  A
C823       C1249   1.500       .  S
O824       Cr833   1.922       .  S
O824        C832   1.241       .  A
O825       Cr833   2.064       .  S
O825        C826   1.279       .  A
C826        O827   1.249       .  A
O827       Cr834   1.933       .  S
O828       Cr834   2.033       .  S
O828        C829   1.270       .  A
C829        O830   1.250       .  A
C829       C1792   1.445       .  S
O830       Cr835   1.919       .  S
O831       Cr835   2.060       .  S
O831        C832   1.272       .  A
C832       C1828   1.489       .  S
Cr833       O836   1.762       .  S
Cr834       O836   1.767       .  S
Cr835       O836   1.771       .  S
O837       Cr855   2.018       .  S
O837        C845   1.275       .  A
O838       Cr855   2.015       .  S
O838        C839   1.268   1_455  A
C839        O840   1.277       .  A
C839       C1237   1.523       .  S
O840       Cr856   2.043   1_655  S
O841       Cr856   2.013       .  S
O841        C842   1.269       .  A
C842        O843   1.274       .  A
O843       Cr857   2.036       .  S
O844       Cr857   1.990       .  S
O844        C845   1.265       .  A
C845       C1225   1.481       .  S
O846       Cr855   1.993       .  S
O846        C854   1.256       .  A
O847       Cr855   2.040       .  S
O847        C848   1.270       .  A
C848        O849   1.263       .  A
O849       Cr856   1.998       .  S
O850       Cr856   1.997       .  S
O850        C851   1.262       .  A
C851        O852   1.252       .  A
C851       C2056   1.455       .  S
O852       Cr857   1.958       .  S
O853       Cr857   2.043       .  S
O853        C854   1.269       .  A
C854       C2008   1.511       .  S
Cr855       O858   1.783       .  S
Cr856       O858   1.781       .  S
Cr857       O858   1.788       .  S
O859       Cr877   1.979       .  S
O859        C867   1.250       .  A
O860       Cr877   2.027       .  S
O860        C861   1.275       .  A
C861        O862   1.257       .  A
C861       C2212   1.489       .  S
O862       Cr878   1.960       .  S
O863       Cr878   2.008       .  S
O863        C864   1.275       .  A
C864        O865   1.261       .  A
C864       C1213   1.451       .  S
O865       Cr879   1.956       .  S
O866       Cr879   1.988       .  S
O866        C867   1.256       .  A
C867       C1297   1.502       .  S
O868       Cr877   2.047       .  S
O868        C876   1.288       .  A
O869       Cr877   1.937       .  S
O869        C870   1.246       .  A
C870        O871   1.256       .  A
C870       C1948   1.451       .  S
O871       Cr878   1.966       .  S
O872       Cr878   1.963       .  S
O872        C873   1.244       .  A
C873        O874   1.252       .  A
C873       C1201   1.457       .  S
O874       Cr879   1.992       .  S
O875       Cr879   1.972       .  S
O875        C876   1.265       .  A
C876       C1240   1.528       .  S
Cr877       O880   1.778       .  S
Cr878       O880   1.761       .  S
Cr879       O880   1.803       .  S
O881       Cr899   2.018       .  S
O881        C889   1.274       .  A
O882       Cr899   2.003   1_554  S
O882        C883   1.265       .  A
C883        O884   1.256       .  A
C883       C1189   1.495       .  S
O884       Cr900   1.995       .  S
O885       Cr900   1.966       .  S
O885        C886   1.267       .  A
C886        O887   1.271       .  A
C886       C1180   1.466       .  S
O887       Cr901   2.005   1_554  S
O888       Cr901   1.955       .  S
O888        C889   1.253       .  A
C889       C1252   1.496       .  S
O890       Cr899   2.004       .  S
O890        C898   1.261       .  A
O891       Cr899   2.003   1_554  S
O891        C892   1.269       .  A
C892        O893   1.264       .  A
C892       C2200   1.462       .  S
O893       Cr900   1.958       .  S
O894       Cr900   1.976       .  S
O894        C895   1.257       .  A
C895        O896   1.252       .  A
C895       C1216   1.450       .  S
O896       Cr901   1.976   1_554  S
O897       Cr901   1.994       .  S
O897        C898   1.264       .  A
C898       C1312   1.512       .  S
Cr899       O902   1.767   1_556  S
Cr900       O902   1.759       .  S
Cr901       O902   1.783   1_556  S
O903       Cr921   1.966   1_455  S
O903        C911   1.252       .  A
O904       Cr921   2.040       .  S
O904        C905   1.279       .  A
C905        O906   1.262       .  A
C905       C1960   1.500       .  S
O906       Cr922   1.974       .  S
O907       Cr922   2.013       .  S
O907        C908   1.266       .  A
C908        O909   1.252       .  A
C908       C1204   1.451       .  S
O909       Cr923   1.952   1_655  S
O910       Cr923   1.992       .  S
O910        C911   1.263       .  A
C911       C1228   1.498       .  S
O912       Cr921   2.032   1_455  S
O912        C920   1.280       .  A
O913       Cr921   1.926       .  S
O913        C914   1.241       .  A
C914        O915   1.260       .  A
C914       C1165   1.447       .  S
O915       Cr922   2.005       .  S
O916       Cr922   1.956       .  S
O916        C917   1.256       .  A
C917        O918   1.268       .  A
C917       C1177   1.469       .  S
O918       Cr923   2.020   1_655  S
O919       Cr923   1.952       .  S
O919        C920   1.257       .  A
C920       C1261   1.518       .  S
Cr921       O924   1.773       .  S
Cr922       O924   1.757       .  S
Cr923       O924   1.793   1_455  S
O925       Cr943   1.964       .  S
O925        C933   1.260       .  A
O926       Cr943   2.077       .  S
O926        C927   1.285       .  A
C927        O928   1.258       .  A
C927       C1141   1.501       .  S
O928       Cr944   1.948       .  S
O929       Cr944   2.076       .  S
O929        C930   1.275       .  A
C930        O931   1.266       .  A
O931       Cr945   1.967       .  S
O932       Cr945   2.076       .  S
O932        C933   1.281       .  A
C933       C1156   1.515       .  S
O934       Cr943   2.062       .  S
O934        C942   1.276       .  A
O935       Cr943   1.928       .  S
O935        C936   1.243       .  A
C936        O937   1.274       .  A
C936       C1192   1.495       .  S
O937       Cr944   2.072       .  S
O938       Cr944   1.916       .  S
O938        C939   1.249       .  A
C939        O940   1.271       .  A
C939       C1168   1.444       .  S
O940       Cr945   2.031       .  S
O941       Cr945   1.943       .  S
O941        C942   1.249       .  A
Cr943       O946   1.766       .  S
Cr944       O946   1.777       .  S
Cr945       O946   1.767       .  S
O947       Cr965   1.966   1_545  S
O947        C955   1.260       .  A
O948       Cr965   2.088       .  S
O948        C949   1.285       .  A
C949        O950   1.258       .  A
C949       C1117   1.494       .  S
O950       Cr966   1.936       .  S
O951       Cr966   2.083       .  S
O951        C952   1.275       .  A
C952        O953   1.265       .  A
O953       Cr967   1.977       .  S
O954       Cr967   2.069   1_545  S
O954        C955   1.280       .  A
C955       C1132   1.516       .  S
O956       Cr965   2.069   1_545  S
O956        C964   1.280       .  A
O957       Cr965   1.945       .  S
O957        C958   1.247       .  A
C958        O959   1.272       .  A
C958       C1444   1.483       .  S
O959       Cr966   2.056       .  S
O960       Cr966   1.916       .  S
O960        C961   1.247       .  A
C961        O962   1.273       .  A
C961       C1477   1.460       .  S
O962       Cr967   2.047       .  S
O963       Cr967   1.962   1_545  S
O963        C964   1.256       .  A
Cr965       O968   1.773       .  S
Cr966       O968   1.765       .  S
Cr967       O968   1.773       .  S
O969       Cr987   1.979       .  S
O969        C977   1.262       .  A
O970       Cr987   2.076       .  S
O970        C971   1.285       .  A
C971        O972   1.261       .  A
C971       C1093   1.500       .  S
O972       Cr988   1.949       .  S
O973       Cr988   2.071       .  S
O973        C974   1.275       .  A
C974        O975   1.265       .  A
O975       Cr989   1.963       .  S
O976       Cr989   2.062       .  S
O976        C977   1.275       .  A
C977       C1105   1.519   1_556  S
O978       Cr987   2.057       .  S
O978        C986   1.278       .  A
O979       Cr987   1.937       .  S
O979        C980   1.243       .  A
C980        O981   1.271       .  A
C980       C2293   1.492       .  S
O981       Cr988   2.059       .  S
O982       Cr988   1.929       .  S
O982        C983   1.252       .  A
C983        O984   1.267       .  A
C983       C2245   1.449       .  S
O984       Cr989   2.027       .  S
O985       Cr989   1.936       .  S
O985        C986   1.249       .  A
Cr987       O990   1.769       .  S
Cr988       O990   1.776       .  S
Cr989       O990   1.775       .  S
O991      Cr1009   2.039       .  S
O991        C999   1.281       .  A
O992      Cr1009   1.930   1_554  S
O992        C993   1.243       .  A
C993        O994   1.261       .  A
C993       C1540   1.451       .  S
O994      Cr1010   1.998       .  S
O995      Cr1010   1.968       .  S
O995        C996   1.254       .  A
C996        O997   1.261       .  A
C996       C1081   1.467       .  S
O997      Cr1011   2.003   1_554  S
O998      Cr1011   1.963       .  S
O998        C999   1.260       .  A
C999       C1153   1.516       .  S
O1000     Cr1009   1.974       .  S
O1000      C1008   1.253       .  A
O1001     Cr1009   2.025   1_554  S
O1001      C1002   1.274       .  A
C1002      O1003   1.262       .  A
C1002      C1285   1.499       .  S
O1003     Cr1010   1.976       .  S
O1004     Cr1010   2.018       .  S
O1004      C1005   1.270       .  A
C1005      O1006   1.256   1_554  A
C1005      C1069   1.460       .  S
O1006     Cr1011   1.961       .  S
O1007     Cr1011   1.999       .  S
O1007      C1008   1.261       .  A
C1008      C1096   1.494       .  S
Cr1009     O1012   1.780   1_556  S
Cr1010     O1012   1.766       .  S
Cr1011     O1012   1.793   1_556  S
O1013     Cr1031   2.046       .  S
O1013      C1021   1.287       .  A
O1014     Cr1031   1.932       .  S
O1014      C1015   1.245       .  A
C1015      O1016   1.257       .  A
C1015      C1276   1.444       .  S
O1016     Cr1032   1.975       .  S
O1017     Cr1032   1.965       .  S
O1017      C1018   1.246       .  A
C1018      O1019   1.257       .  A
C1018      C1072   1.463       .  S
O1019     Cr1033   2.008       .  S
O1020     Cr1033   1.958       .  S
O1020      C1021   1.262       .  A
C1021      C1108   1.520       .  S
O1022     Cr1031   1.987       .  S
O1022      C1030   1.250       .  A
O1023     Cr1031   2.034       .  S
O1023      C1024   1.276       .  A
C1024      O1025   1.258       .  A
C1024      C2413   1.500       .  S
O1025     Cr1032   1.961       .  S
O1026     Cr1032   2.009       .  S
O1026      C1027   1.274       .  A
C1027      O1028   1.255       .  A
C1027      C1057   1.446       .  S
O1028     Cr1033   1.940       .  S
O1029     Cr1033   1.988       .  S
O1029      C1030   1.260       .  A
C1030      C1120   1.509       .  S
Cr1031     O1034   1.788       .  S
Cr1032     O1034   1.760       .  S
Cr1033     O1034   1.809       .  S
O1035     Cr1053   2.007       .  S
O1035      C1043   1.261       .  A
O1036     Cr1053   2.008       .  S
O1036      C1037   1.272   1_545  A
C1037      O1038   1.260       .  A
C1037      C2401   1.458       .  S
O1038     Cr1054   1.935       .  S
O1039     Cr1054   1.968       .  S
O1039      C1040   1.256       .  A
C1040      O1041   1.254   1_565  A
C1040      C1060   1.451       .  S
O1041     Cr1055   1.983       .  S
O1042     Cr1055   2.001       .  S
O1042      C1043   1.267       .  A
C1043      C1129   1.517       .  S
O1044     Cr1053   2.016       .  S
O1044      C1052   1.274       .  A
O1045     Cr1053   2.011       .  S
O1045      C1046   1.263       .  A
C1046      O1047   1.252   1_545  A
C1046      C1552   1.482   1_545  S
O1047     Cr1054   1.985       .  S
O1048     Cr1054   1.957       .  S
O1048      C1049   1.266   1_565  A
C1049      O1050   1.273       .  A
C1049      C1084   1.463       .  S
O1050     Cr1055   2.013       .  S
O1051     Cr1055   1.960       .  S
O1051      C1052   1.254       .  A
C1052      C1144   1.501       .  S
Cr1053     O1056   1.766       .  S
Cr1054     O1056   1.758   1_565  S
Cr1055     O1056   1.779       .  S
C1057      C1058   1.394       .  A
C1057      C1062   1.405       .  A
C1058      C1059   1.384       .  A
C1058      H1063   1.084       .  S
C1059      C1060   1.407       .  A
C1059      O1064   1.372       .  S
C1060      C1061   1.401       .  A
C1061      C1062   1.398       .  A
C1061      H1065   1.084       .  S
C1062      O1066   1.372       .  S
O1064      H1068   0.992       .  S
O1066      H1067   0.992       .  S
C1069      C1070   1.400       .  A
C1069      C1074   1.405       .  A
C1070      C1071   1.397       .  A
C1070      H1075   1.084       .  S
C1071      C1072   1.410       .  A
C1071      O1076   1.371       .  S
C1072      C1073   1.401       .  A
C1073      C1074   1.394       .  A
C1073      H1077   1.084       .  S
C1074      O1078   1.370       .  S
O1076      H1080   0.991       .  S
O1078      H1079   0.992       .  S
C1081      C1082   1.404       .  A
C1081      C1086   1.406       .  A
C1082      C1083   1.396       .  A
C1082      H1087   1.083       .  S
C1083      C1084   1.406   1_565  A
C1083      O1088   1.372       .  S
C1084      C1085   1.402       .  A
C1085      C1086   1.393   1_545  A
C1085      H1089   1.085       .  S
C1086      O1090   1.373       .  S
O1088      H1092   0.992   1_565  S
O1090      H1091   0.992       .  S
C1093      C1094   1.411       .  A
C1093      C1098   1.409       .  A
C1094      C1095   1.400       .  A
C1094      H1099   1.084       .  S
C1095      C1096   1.406       .  A
C1095      O1100   1.372       .  S
C1096      C1097   1.413       .  A
C1097      C1098   1.416       .  A
C1097      H1101   1.081       .  S
C1098      O1102   1.371       .  S
O1100      H1104   0.992       .  S
O1102      H1103   0.992       .  S
C1105      C1106   1.406       .  A
C1105      C1110   1.418       .  A
C1106      C1107   1.403       .  A
C1106      H1111   1.083   1_554  S
C1107      C1108   1.418       .  A
C1107      O1112   1.372       .  S
C1108      C1109   1.416       .  A
C1109      C1110   1.428       .  A
C1109      H1113   1.082       .  S
C1110      O1114   1.371       .  S
O1112      H1116   0.992       .  S
O1114      H1115   0.992       .  S
C1117      C1118   1.397       .  A
C1117      C1122   1.417       .  A
C1118      C1119   1.392       .  A
C1118      H1123   1.085       .  S
C1119      C1120   1.415       .  A
C1119      O1124   1.366       .  S
C1120      C1121   1.411       .  A
C1121      C1122   1.424       .  A
C1121      H1125   1.083       .  S
C1122      O1126   1.371       .  S
O1124      H1128   0.992       .  S
O1126      H1127   0.992       .  S
C1129      C1130   1.419       .  A
C1129      C1134   1.412       .  A
C1130      C1131   1.421       .  A
C1130      H1135   1.083       .  S
C1131      C1132   1.413       .  A
C1131      O1136   1.370       .  S
C1132      C1133   1.412       .  A
C1133      C1134   1.406       .  A
C1133      H1137   1.083       .  S
C1134      O1138   1.371       .  S
O1136      H1140   0.992       .  S
O1138      H1139   0.992       .  S
C1141      C1142   1.403       .  A
C1141      C1146   1.420       .  A
C1142      C1143   1.413       .  A
C1142      H1147   1.083       .  S
C1143      C1144   1.423       .  A
C1143      O1148   1.373       .  S
C1144      C1145   1.401       .  A
C1145      C1146   1.403       .  A
C1145      H1149   1.083       .  S
C1146      O1150   1.372       .  S
O1148      H1152   0.991       .  S
O1150      H1151   0.992       .  S
C1153      C1154   1.407       .  A
C1153      C1158   1.421       .  A
C1154      C1155   1.403   1_565  A
C1154      H1159   1.084       .  S
C1155      C1156   1.416   1_556  A
C1155      O1160   1.372       .  S
C1156      C1157   1.411   1_545  A
C1157      C1158   1.425   1_554  A
C1157      H1161   1.083       .  S
C1158      O1162   1.369       .  S
O1160      H1164   0.992       .  S
O1162      H1163   0.992       .  S
C1165      C1166   1.396       .  A
C1165      C1170   1.404       .  A
C1166      C1167   1.392       .  A
C1166      H1171   1.084       .  S
C1167      C1168   1.408       .  A
C1167      O1172   1.372       .  S
C1168      C1169   1.399       .  A
C1169      C1170   1.394       .  A
C1169      H1173   1.084       .  S
C1170      O1174   1.372       .  S
O1172      H1176   0.993       .  S
O1174      H1175   0.992       .  S
C1177      C1178   1.405       .  A
C1177      C1182   1.407       .  A
C1178      C1179   1.392       .  A
C1178      H1183   1.085       .  S
C1179      C1180   1.409       .  A
C1179      O1184   1.372       .  S
C1180      C1181   1.403       .  A
C1181      C1182   1.396       .  A
C1181      H1185   1.083       .  S
C1182      O1186   1.371       .  S
O1184      H1188   0.990       .  S
O1186      H1187   0.991       .  S
C1189      C1190   1.418       .  A
C1189      C1194   1.403       .  A
C1190      C1191   1.412       .  A
C1190      H1195   1.083       .  S
C1191      C1192   1.406       .  A
C1191      O1196   1.371       .  S
C1192      C1193   1.414       .  A
C1193      C1194   1.395       .  A
C1193      H1197   1.084       .  S
C1194      O1198   1.371   1_554  S
O1196      H1200   0.992       .  S
O1198      H1199   0.991       .  S
C1201      C1202   1.402       .  A
C1201      C1206   1.408       .  A
C1202      C1203   1.392       .  A
C1202      H1207   1.084       .  S
C1203      C1204   1.402       .  A
C1203      O1208   1.371       .  S
C1204      C1205   1.399       .  A
C1205      C1206   1.393       .  A
C1205      H1209   1.083       .  S
C1206      O1210   1.373       .  S
O1208      H1212   0.992       .  S
O1210      H1211   0.992       .  S
C1213      C1214   1.401       .  A
C1213      C1218   1.403       .  A
C1214      C1215   1.397       .  A
C1214      H1219   1.084       .  S
C1215      C1216   1.404       .  A
C1215      O1220   1.371       .  S
C1216      C1217   1.400       .  A
C1217      C1218   1.389       .  A
C1217      H1221   1.084       .  S
C1218      O1222   1.373       .  S
O1220      H1224   0.992       .  S
O1222      H1223   0.992       .  S
C1225      C1226   1.409       .  A
C1225      C1230   1.404       .  A
C1226      C1227   1.415       .  A
C1226      H1231   1.083       .  S
C1227      C1228   1.411       .  A
C1227      O1232   1.370       .  S
C1228      C1229   1.411       .  A
C1229      C1230   1.398       .  A
C1229      H1233   1.083   1_455  S
C1230      O1234   1.374   1_455  S
O1232      H1236   0.992       .  S
O1234      H1235   0.992   1_655  S
C1237      C1238   1.409       .  A
C1237      C1242   1.415       .  A
C1238      C1239   1.410       .  A
C1238      H1243   1.084       .  S
C1239      C1240   1.420       .  A
C1239      O1244   1.373       .  S
C1240      C1241   1.416       .  A
C1241      C1242   1.428       .  A
C1241      H1245   1.082       .  S
C1242      O1246   1.369       .  S
O1244      H1248   0.992       .  S
O1246      H1247   0.992       .  S
C1249      C1250   1.402       .  A
C1249      C1254   1.423       .  A
C1250      C1251   1.408       .  A
C1250      H1255   1.083       .  S
C1251      C1252   1.422       .  A
C1251      O1256   1.371       .  S
C1252      C1253   1.400       .  A
C1253      C1254   1.401       .  A
C1253      H1257   1.083       .  S
C1254      O1258   1.372       .  S
O1256      H1260   0.992       .  S
O1258      H1259   0.993       .  S
C1261      C1262   1.410       .  A
C1261      C1266   1.419       .  A
C1262      C1263   1.399   1_455  A
C1262      H1267   1.084       .  S
C1263      C1264   1.416       .  A
C1263      O1268   1.373   1_554  S
C1264      C1265   1.414       .  A
C1265      C1266   1.426   1_655  A
C1265      H1269   1.083       .  S
C1266      O1270   1.369       .  S
O1268      H1272   0.992   1_655  S
O1270      H1271   0.992       .  S
C1273      C1274   1.399       .  A
C1273      C1278   1.402       .  A
C1274      C1275   1.386       .  A
C1274      H1279   1.085       .  S
C1275      C1276   1.401       .  A
C1275      O1280   1.372       .  S
C1276      C1277   1.401       .  A
C1277      C1278   1.392       .  A
C1277      H1281   1.084       .  S
C1278      O1282   1.372       .  S
O1280      H1284   0.992       .  S
O1282      H1283   0.991       .  S
C1285      C1286   1.415       .  A
C1285      C1290   1.410       .  A
C1286      C1287   1.410       .  A
C1286      H1291   1.083       .  S
C1287      C1288   1.406       .  A
C1287      O1292   1.371       .  S
C1288      C1289   1.409       .  A
C1289      C1290   1.401       .  A
C1289      H1293   1.084       .  S
C1290      O1294   1.372       .  S
O1292      H1296   0.992       .  S
O1294      H1295   0.992       .  S
C1297      C1298   1.402       .  A
C1297      C1302   1.419       .  A
C1298      C1299   1.396       .  A
C1298      H1303   1.084       .  S
C1299      C1300   1.420       .  A
C1299      O1304   1.372       .  S
C1300      C1301   1.409       .  A
C1301      C1302   1.419       .  A
C1301      H1305   1.083       .  S
C1302      O1306   1.370       .  S
O1304      H1308   0.992       .  S
O1306      H1307   0.992       .  S
C1309      C1310   1.410   1_554  A
C1309      C1314   1.413       .  A
C1310      C1311   1.409       .  A
C1310      H1315   1.083       .  S
C1311      C1312   1.415       .  A
C1311      O1316   1.371       .  S
C1312      C1313   1.413       .  A
C1313      C1314   1.414   1_556  A
C1313      H1317   1.083       .  S
C1314      O1318   1.371       .  S
O1316      H1320   0.992       .  S
O1318      H1319   0.992   1_554  S
C1321      C1322   1.398       .  A
C1321      C1326   1.401       .  A
C1322      C1323   1.393   1_655  A
C1322      H1327   1.083       .  S
C1323      C1324   1.408       .  A
C1323      O1328   1.372       .  S
C1324      C1325   1.405       .  A
C1325      C1326   1.393   1_455  A
C1325      H1329   1.083       .  S
C1326      O1330   1.373       .  S
O1328      H1332   0.992       .  S
O1330      H1331   0.992       .  S
C1333      C1334   1.400       .  A
C1333      C1338   1.403       .  A
C1334      C1335   1.398       .  A
C1334      H1339   1.084       .  S
C1335      C1336   1.406       .  A
C1335      O1340   1.373   1_556  S
C1336      C1337   1.399       .  A
C1337      C1338   1.389       .  A
C1337      H1341   1.084       .  S
C1338      O1342   1.371       .  S
O1340      H1344   0.992       .  S
O1342      H1343   0.992       .  S
C1345      C1346   1.399       .  A
C1345      C1350   1.403   1_554  A
C1346      C1347   1.390       .  A
C1346      H1351   1.085       .  S
C1347      C1348   1.405   1_554  A
C1347      O1352   1.369       .  S
C1348      C1349   1.404       .  A
C1349      C1350   1.393       .  A
C1349      H1353   1.083   1_455  S
C1350      O1354   1.372       .  S
O1352      H1356   0.992       .  S
O1354      H1355   0.992       .  S
C1357      C1358   1.411       .  A
C1357      C1362   1.410       .  A
C1358      C1359   1.398       .  A
C1358      H1363   1.084       .  S
C1359      C1360   1.407       .  A
C1359      O1364   1.373       .  S
C1360      C1361   1.417       .  A
C1361      C1362   1.420       .  A
C1361      H1365   1.082       .  S
C1362      O1366   1.371       .  S
O1364      H1368   0.992       .  S
O1366      H1367   0.992       .  S
C1369      C1370   1.389       .  A
C1369      C1374   1.421       .  A
C1370      C1371   1.401   1_655  A
C1370      H1375   1.085       .  S
C1371      C1372   1.415       .  A
C1371      O1376   1.362       .  S
C1372      C1373   1.414       .  A
C1373      C1374   1.432   1_455  A
C1373      H1377   1.083       .  S
C1374      O1378   1.370       .  S
O1376      H1380   0.993       .  S
O1378      H1379   0.992       .  S
C1381      C1382   1.415       .  A
C1381      C1386   1.411       .  A
C1382      C1383   1.420       .  A
C1382      H1387   1.082       .  S
C1383      C1384   1.412       .  A
C1383      O1388   1.370       .  S
C1384      C1385   1.408       .  A
C1385      C1386   1.397       .  A
C1385      H1389   1.084       .  S
C1386      O1390   1.373       .  S
O1388      H1392   0.992       .  S
O1390      H1391   0.992       .  S
C1393      C1394   1.411       .  A
C1393      C1398   1.419       .  A
C1394      C1395   1.417       .  A
C1394      H1399   1.083       .  S
C1395      C1396   1.417       .  A
C1395      O1400   1.373       .  S
C1396      C1397   1.406       .  A
C1397      C1398   1.408       .  A
C1397      H1401   1.083       .  S
C1398      O1402   1.372       .  S
O1400      H1404   0.991       .  S
O1402      H1403   0.991       .  S
C1405      C1406   1.403       .  A
C1405      C1410   1.421       .  A
C1406      C1407   1.407       .  A
C1406      H1411   1.083       .  S
C1407      C1408   1.421       .  A
C1407      O1412   1.372       .  S
C1408      C1409   1.403       .  A
C1409      C1410   1.411       .  A
C1409      H1413   1.083       .  S
C1410      O1414   1.372       .  S
O1412      H1416   0.992       .  S
O1414      H1415   0.991       .  S
C1417      C1418   1.417   1_554  A
C1417      C1422   1.418       .  A
C1418      C1419   1.430       .  A
C1418      H1423   1.083       .  S
C1419      C1420   1.420       .  A
C1419      O1424   1.369       .  S
C1420      C1421   1.410   1_556  A
C1421      C1422   1.403       .  A
C1421      H1425   1.083       .  S
C1422      O1426   1.372       .  S
O1424      H1428   0.991       .  S
O1426      H1427   0.992       .  S
C1429      C1430   1.403       .  A
C1429      C1434   1.402       .  A
C1430      C1431   1.398       .  A
C1430      H1435   1.084       .  S
C1431      C1432   1.407       .  A
C1431      O1436   1.372       .  S
C1432      C1433   1.405       .  A
C1433      C1434   1.392       .  A
C1433      H1437   1.084   1_565  S
C1434      O1438   1.372       .  S
O1436      H1440   0.992       .  S
O1438      H1439   0.993       .  S
C1441      C1442   1.416       .  A
C1441      C1446   1.411   1_565  A
C1442      C1443   1.404       .  A
C1442      H1447   1.083       .  S
C1443      C1444   1.401       .  A
C1443      O1448   1.371       .  S
C1444      C1445   1.409       .  A
C1445      C1446   1.407   1_565  A
C1445      H1449   1.084   1_565  S
C1446      O1450   1.371       .  S
O1448      H1452   0.991       .  S
O1450      H1451   0.992       .  S
C1453      C1454   1.400       .  A
C1453      C1458   1.406       .  A
C1454      C1455   1.392       .  A
C1454      H1459   1.084       .  S
C1455      C1456   1.407   1_655  A
C1455      O1460   1.371       .  S
C1456      C1457   1.404       .  A
C1457      C1458   1.398   1_455  A
C1457      H1461   1.084       .  S
C1458      O1462   1.373   1_655  S
O1460      H1464   0.992       .  S
O1462      H1463   0.992       .  S
C1465      C1466   1.416   1_655  A
C1465      C1470   1.407       .  A
C1466      C1467   1.406       .  A
C1466      H1471   1.083       .  S
C1467      C1468   1.402       .  A
C1467      O1472   1.371       .  S
C1468      C1469   1.409   1_455  A
C1469      C1470   1.402       .  A
C1469      H1473   1.082       .  S
C1470      O1474   1.371       .  S
O1472      H1476   0.991       .  S
O1474      H1475   0.992       .  S
C1477      C1478   1.395       .  A
C1477      C1482   1.415       .  A
C1478      C1479   1.396       .  A
C1478      H1483   1.083       .  S
C1479      C1480   1.417       .  A
C1479      O1484   1.371       .  S
C1480      C1481   1.394       .  A
C1481      C1482   1.383       .  A
C1481      H1485   1.084       .  S
C1482      O1486   1.373       .  S
O1484      H1488   0.992       .  S
O1486      H1487   0.992       .  S
C1489      C1490   1.406       .  A
C1489      C1494   1.415       .  A
C1490      C1491   1.396   1_565  A
C1490      H1495   1.083       .  S
C1491      C1492   1.402       .  A
C1491      O1496   1.371       .  S
C1492      C1493   1.395   1_545  A
C1493      C1494   1.393       .  A
C1493      H1497   1.085       .  S
C1494      O1498   1.373       .  S
O1496      H1500   0.992       .  S
O1498      H1499   0.993       .  S
C1501      C1502   1.402       .  A
C1501      C1506   1.406       .  A
C1502      C1503   1.399       .  A
C1502      H1507   1.084   1_455  S
C1503      C1504   1.406       .  A
C1503      O1508   1.371       .  S
C1504      C1505   1.395       .  A
C1505      C1506   1.387       .  A
C1505      H1509   1.083       .  S
C1506      O1510   1.373       .  S
O1508      H1512   0.992       .  S
O1510      H1511   0.992       .  S
C1513      C1514   1.409       .  A
C1513      C1518   1.404       .  A
C1514      C1515   1.415       .  A
C1514      H1519   1.083       .  S
C1515      C1516   1.414       .  A
C1515      O1520   1.371       .  S
C1516      C1517   1.409       .  A
C1517      C1518   1.394       .  A
C1517      H1521   1.083       .  S
C1518      O1522   1.373       .  S
O1520      H1524   0.992       .  S
O1522      H1523   0.992       .  S
C1525      C1526   1.410       .  A
C1525      C1530   1.412       .  A
C1526      C1527   1.410       .  A
C1526      H1531   1.073       .  S
C1527      C1528   1.407   1_565  A
C1527      O1532   1.372       .  S
C1528      C1529   1.416       .  A
C1529      C1530   1.420   1_545  A
C1529      H1533   1.083       .  S
C1530      O1534   1.371       .  S
O1532      H1536   0.992       .  S
O1534      H1535   0.992   1_565  S
C1537      C1538   1.401       .  A
C1537      C1542   1.405       .  A
C1538      C1539   1.399       .  A
C1538      H1543   1.084       .  S
C1539      C1540   1.405       .  A
C1539      O1544   1.371       .  S
C1540      C1541   1.394       .  A
C1541      C1542   1.389       .  A
C1541      H1545   1.081       .  S
C1542      O1546   1.372       .  S
O1544      H1548   0.992       .  S
O1546      H1547   0.991       .  S
C1549      C1550   1.401       .  A
C1549      C1554   1.420   1_565  A
C1550      C1551   1.407       .  A
C1550      H1555   1.083       .  S
C1551      C1552   1.418       .  A
C1551      O1556   1.372       .  S
C1552      C1553   1.396   1_565  A
C1553      C1554   1.397       .  A
C1553      H1557   1.083       .  S
C1554      O1558   1.373       .  S
O1556      H1560   0.992       .  S
O1558      H1559   0.992       .  S
C1561      C1562   1.403       .  A
C1561      C1566   1.423       .  A
C1562      C1563   1.413       .  A
C1562      H1567   1.083       .  S
C1563      C1564   1.422       .  A
C1563      O1568   1.372       .  S
C1564      C1565   1.400       .  A
C1565      C1566   1.402       .  A
C1565      H1569   1.084       .  S
C1566      O1570   1.372       .  S
O1568      H1572   0.992       .  S
O1570      H1571   0.992       .  S
C1573      C1574   1.409       .  A
C1573      C1578   1.416       .  A
C1574      C1575   1.399       .  A
C1574      H1579   1.083       .  S
C1575      C1576   1.417   1_655  A
C1575      O1580   1.372       .  S
C1576      C1577   1.416       .  A
C1577      C1578   1.427   1_455  A
C1577      H1581   1.083       .  S
C1578      O1582   1.369       .  S
O1580      H1584   0.992       .  S
O1582      H1583   0.992       .  S
C1585      C1586   1.392       .  A
C1585      C1590   1.413       .  A
C1586      C1587   1.394       .  A
C1586      H1591   1.084       .  S
C1587      C1588   1.419       .  A
C1587      O1592   1.370       .  S
C1588      C1589   1.393       .  A
C1589      C1590   1.384       .  A
C1589      H1593   1.084       .  S
C1590      O1594   1.373       .  S
O1592      H1596   0.992       .  S
O1594      H1595   0.992       .  S
C1597      C1598   1.402   1_455  A
C1597      C1602   1.421       .  A
C1598      C1599   1.398       .  A
C1598      H1603   1.083       .  S
C1599      C1600   1.414   1_655  A
C1599      O1604   1.372       .  S
C1600      C1601   1.402       .  A
C1601      C1602   1.411       .  A
C1601      H1605   1.083       .  S
C1602      O1606   1.372       .  S
O1604      H1608   0.992       .  S
O1606      H1607   0.992       .  S
C1609      C1610   1.416       .  A
C1609      C1614   1.409       .  A
C1610      C1611   1.424       .  A
C1610      H1615   1.083       .  S
C1611      C1612   1.412       .  A
C1611      O1616   1.370       .  S
C1612      C1613   1.405       .  A
C1613      C1614   1.390       .  A
C1613      H1617   1.076       .  S
C1614      O1618   1.374       .  S
O1616      H1620   0.991       .  S
O1618      H1619   0.991       .  S
C1621      C1622   1.408       .  A
C1621      C1626   1.420       .  A
C1622      C1623   1.418       .  A
C1622      H1627   1.083       .  S
C1623      C1624   1.420       .  A
C1623      O1628   1.371       .  S
C1624      C1625   1.405       .  A
C1625      C1626   1.408       .  A
C1625      H1629   1.083       .  S
C1626      O1630   1.372       .  S
O1628      H1632   0.992       .  S
O1630      H1631   0.992       .  S
C1633      C1634   1.408       .  A
C1633      C1638   1.402       .  A
C1634      C1635   1.403   1_556  A
C1634      H1639   1.084   1_556  S
C1635      C1636   1.410   1_554  A
C1635      O1640   1.373       .  S
C1636      C1637   1.414       .  A
C1637      C1638   1.405       .  A
C1637      H1641   1.083       .  S
C1638      O1642   1.371       .  S
O1640      H1644   0.992       .  S
O1642      H1643   0.992       .  S
C1645      C1646   1.400       .  A
C1645      C1650   1.410       .  A
C1646      C1647   1.389       .  A
C1646      H1651   1.081       .  S
C1647      C1648   1.406       .  A
C1647      O1652   1.374       .  S
C1648      C1649   1.403       .  A
C1649      C1650   1.400       .  A
C1649      H1653   1.084       .  S
C1650      O1654   1.371   1_556  S
O1652      H1656   0.993       .  S
O1654      H1655   0.992       .  S
C1657      C1658   1.397       .  A
C1657      C1662   1.406       .  A
C1658      C1659   1.386       .  A
C1658      H1663   1.085       .  S
C1659      C1660   1.404       .  A
C1659      O1664   1.373       .  S
C1660      C1661   1.399       .  A
C1661      C1662   1.393       .  A
C1661      H1665   1.084       .  S
C1662      O1666   1.372       .  S
O1664      H1668   0.992   1_556  S
O1666      H1667   0.992       .  S
C1669      C1670   1.406       .  A
C1669      C1674   1.406       .  A
C1670      C1671   1.398   1_556  A
C1670      H1675   1.084   1_556  S
C1671      C1672   1.403       .  A
C1671      O1676   1.370       .  S
C1672      C1673   1.398   1_554  A
C1673      C1674   1.392       .  A
C1673      H1677   1.082       .  S
C1674      O1678   1.372       .  S
O1676      H1680   0.992       .  S
O1678      H1679   0.991       .  S
C1681      C1682   1.401       .  A
C1681      C1686   1.409       .  A
C1682      C1683   1.398       .  A
C1682      H1687   1.084       .  S
C1683      C1684   1.404       .  A
C1683      O1688   1.371       .  S
C1684      C1685   1.393       .  A
C1685      C1686   1.385       .  A
C1685      H1689   1.084       .  S
C1686      O1690   1.373       .  S
O1688      H1692   0.991       .  S
O1690      H1691   0.993       .  S
C1693      C1694   1.409       .  A
C1693      C1698   1.406       .  A
C1694      C1695   1.419       .  A
C1694      H1699   1.083       .  S
C1695      C1696   1.416       .  A
C1695      O1700   1.371       .  S
C1696      C1697   1.410       .  A
C1697      C1698   1.397       .  A
C1697      H1701   1.081       .  S
C1698      O1702   1.373       .  S
O1700      H1704   0.992       .  S
O1702      H1703   0.993       .  S
C1705      C1706   1.416   1_554  A
C1705      C1710   1.417       .  A
C1706      C1707   1.429       .  A
C1706      H1711   1.083       .  S
C1707      C1708   1.420       .  A
C1707      O1712   1.369       .  S
C1708      C1709   1.409       .  A
C1709      C1710   1.402   1_556  A
C1709      H1713   1.084   1_556  S
C1710      O1714   1.372       .  S
O1712      H1716   0.991       .  S
O1714      H1715   0.993       .  S
C1717      C1718   1.399       .  A
C1717      C1722   1.405       .  A
C1718      C1719   1.386       .  A
C1718      H1723   1.085       .  S
C1719      C1720   1.401       .  A
C1719      O1724   1.369       .  S
C1720      C1721   1.403   1_455  A
C1721      C1722   1.399   1_655  A
C1721      H1725   1.084       .  S
C1722      O1726   1.371       .  S
O1724      H1728   0.991   1_455  S
O1726      H1727   0.992   1_455  S
C1729      C1730   1.404       .  A
C1729      C1734   1.416       .  A
C1730      C1731   1.409       .  A
C1730      H1735   1.083       .  S
C1731      C1732   1.415       .  A
C1731      O1736   1.372       .  S
C1732      C1733   1.398   1_556  A
C1733      C1734   1.397   1_554  A
C1733      H1737   1.084       .  S
C1734      O1738   1.372   1_556  S
O1736      H1740   0.992       .  S
O1738      H1739   0.992       .  S
C1741      C1742   1.415       .  A
C1741      C1746   1.409       .  A
C1742      C1743   1.409       .  A
C1742      H1747   1.083       .  S
C1743      C1744   1.408       .  A
C1743      O1748   1.371       .  S
C1744      C1745   1.411       .  A
C1745      C1746   1.403       .  A
C1745      H1749   1.083       .  S
C1746      O1750   1.371       .  S
O1748      H1752   0.992       .  S
O1750      H1751   0.992       .  S
C1753      C1754   1.409       .  A
C1753      C1758   1.421       .  A
C1754      C1755   1.406       .  A
C1754      H1759   1.083       .  S
C1755      C1756   1.419       .  A
C1755      O1760   1.371   1_545  S
C1756      C1757   1.417       .  A
C1757      C1758   1.430       .  A
C1757      H1761   1.083       .  S
C1758      O1762   1.369       .  S
O1760      H1764   0.992       .  S
O1762      H1763   0.992       .  S
C1765      C1766   1.409       .  A
C1765      C1770   1.419       .  A
C1766      C1767   1.418       .  A
C1766      H1771   1.083       .  S
C1767      C1768   1.418       .  A
C1767      O1772   1.370       .  S
C1768      C1769   1.403       .  A
C1769      C1770   1.398       .  A
C1769      H1773   1.084       .  S
C1770      O1774   1.372       .  S
O1772      H1776   0.992       .  S
O1774      H1775   0.992       .  S
C1777      C1778   1.414       .  A
C1777      C1782   1.413       .  A
C1778      C1779   1.414   1_565  A
C1778      H1783   1.083       .  S
C1779      C1780   1.412       .  A
C1779      O1784   1.370       .  S
C1780      C1781   1.409   1_545  A
C1781      C1782   1.407       .  A
C1781      H1785   1.083       .  S
C1782      O1786   1.371       .  S
O1784      H1788   0.998   1_545  S
O1786      H1787   0.992       .  S
C1789      C1790   1.395       .  A
C1789      C1794   1.406       .  A
C1790      C1791   1.387       .  A
C1790      H1795   1.082       .  S
C1791      C1792   1.406       .  A
C1791      O1796   1.373       .  S
C1792      C1793   1.401       .  A
C1793      C1794   1.398       .  A
C1793      H1797   1.084       .  S
C1794      O1798   1.372       .  S
O1796      H1800   0.993       .  S
O1798      H1799   0.992       .  S
C1801      C1802   1.418       .  A
C1801      C1806   1.407       .  A
C1802      C1803   1.407       .  A
C1802      H1807   1.083       .  S
C1803      C1804   1.401       .  A
C1803      O1808   1.371       .  S
C1804      C1805   1.411       .  A
C1805      C1806   1.401       .  A
C1805      H1809   1.084       .  S
C1806      O1810   1.371       .  S
O1808      H1812   0.992       .  S
O1810      H1811   0.992       .  S
C1813      C1814   1.403       .  A
C1813      C1818   1.409       .  A
C1814      C1815   1.397       .  A
C1814      H1819   1.083       .  S
C1815      C1816   1.406       .  A
C1815      O1820   1.371       .  S
C1816      C1817   1.400       .  A
C1817      C1818   1.395       .  A
C1817      H1821   1.085       .  S
C1818      O1822   1.374       .  S
O1820      H1824   0.992       .  S
O1822      H1823   0.992       .  S
C1825      C1826   1.394       .  A
C1825      C1830   1.418       .  A
C1826      C1827   1.393       .  A
C1826      H1831   1.083       .  S
C1827      C1828   1.421       .  A
C1827      O1832   1.373       .  S
C1828      C1829   1.403       .  A
C1829      C1830   1.410       .  A
C1829      H1833   1.083       .  S
C1830      O1834   1.372       .  S
O1832      H1836   0.992       .  S
O1834      H1835   0.992       .  S
C1837      C1838   1.401       .  A
C1837      C1842   1.399       .  A
C1838      C1839   1.397       .  A
C1838      H1843   1.084       .  S
C1839      C1840   1.405       .  A
C1839      O1844   1.372       .  S
C1840      C1841   1.400       .  A
C1841      C1842   1.384       .  A
C1841      H1845   1.084       .  S
C1842      O1846   1.372       .  S
O1844      H1848   0.992       .  S
O1846      H1847   0.992       .  S
C1849      C1850   1.398       .  A
C1849      C1854   1.402       .  A
C1850      C1851   1.394       .  A
C1850      H1855   1.084       .  S
C1851      C1852   1.405       .  A
C1851      O1856   1.373       .  S
C1852      C1853   1.400       .  A
C1853      C1854   1.394       .  A
C1853      H1857   1.084       .  S
C1854      O1858   1.372       .  S
O1856      H1860   0.992       .  S
O1858      H1859   0.992       .  S
C1861      C1862   1.402       .  A
C1861      C1866   1.412       .  A
C1862      C1863   1.394       .  A
C1862      H1867   1.084       .  S
C1863      C1864   1.404       .  A
C1863      O1868   1.371       .  S
C1864      C1865   1.395       .  A
C1865      C1866   1.391       .  A
C1865      H1869   1.084       .  S
C1866      O1870   1.373       .  S
O1868      H1872   0.992       .  S
O1870      H1871   0.993       .  S
C1873      C1874   1.411       .  A
C1873      C1878   1.411       .  A
C1874      C1875   1.397       .  A
C1874      H1879   1.084       .  S
C1875      C1876   1.408       .  A
C1875      O1880   1.372       .  S
C1876      C1877   1.416       .  A
C1877      C1878   1.420       .  A
C1877      H1881   1.083       .  S
C1878      O1882   1.370       .  S
O1880      H1884   0.992       .  S
O1882      H1883   0.992       .  S
C1885      C1886   1.408       .  A
C1885      C1890   1.421       .  A
C1886      C1887   1.418       .  A
C1886      H1891   1.083       .  S
C1887      C1888   1.422       .  A
C1887      O1892   1.371       .  S
C1888      C1889   1.406       .  A
C1889      C1890   1.410       .  A
C1889      H1893   1.083       .  S
C1890      O1894   1.371   1_545  S
O1892      H1896   0.991       .  S
O1894      H1895   0.992       .  S
C1897      C1898   1.403       .  A
C1897      C1902   1.403       .  A
C1898      C1899   1.389       .  A
C1898      H1903   1.085       .  S
C1899      C1900   1.401       .  A
C1899      O1904   1.370       .  S
C1900      C1901   1.404       .  A
C1901      C1902   1.397       .  A
C1901      H1905   1.084   1_556  S
C1902      O1906   1.371       .  S
O1904      H1908   0.991       .  S
O1906      H1907   0.992       .  S
C1909      C1910   1.399       .  A
C1909      C1914   1.420       .  A
C1910      C1911   1.405       .  A
C1910      H1915   1.083       .  S
C1911      C1912   1.418       .  A
C1911      O1916   1.372       .  S
C1912      C1913   1.396       .  A
C1913      C1914   1.397       .  A
C1913      H1917   1.084       .  S
C1914      O1918   1.373       .  S
O1916      H1920   0.992       .  S
O1918      H1919   0.992   1_545  S
C1921      C1922   1.416       .  A
C1921      C1926   1.408       .  A
C1922      C1923   1.407       .  A
C1922      H1927   1.083       .  S
C1923      C1924   1.406       .  A
C1923      O1928   1.371       .  S
C1924      C1925   1.412       .  A
C1925      C1926   1.403       .  A
C1925      H1929   1.083       .  S
C1926      O1930   1.371       .  S
O1928      H1932   0.992       .  S
O1930      H1931   0.992       .  S
C1933      C1934   1.409       .  A
C1933      C1938   1.420       .  A
C1934      C1935   1.404       .  A
C1934      H1939   1.084       .  S
C1935      C1936   1.417   1_565  A
C1935      O1940   1.373       .  S
C1936      C1937   1.415   1_545  A
C1937      C1938   1.429       .  A
C1937      H1941   1.083   1_565  S
C1938      O1942   1.369       .  S
O1940      H1944   0.993   1_565  S
O1942      H1943   0.991       .  S
C1945      C1946   1.399       .  A
C1945      C1950   1.402       .  A
C1946      C1947   1.390       .  A
C1946      H1951   1.084       .  S
C1947      C1948   1.406       .  A
C1947      O1952   1.372       .  S
C1948      C1949   1.401       .  A
C1949      C1950   1.389       .  A
C1949      H1953   1.084       .  S
C1950      O1954   1.373       .  S
O1952      H1956   0.992       .  S
O1954      H1955   0.992       .  S
C1957      C1958   1.405       .  A
C1957      C1962   1.421       .  A
C1958      C1959   1.413       .  A
C1958      H1963   1.083       .  S
C1959      C1960   1.420       .  A
C1959      O1964   1.372       .  S
C1960      C1961   1.400       .  A
C1961      C1962   1.401       .  A
C1961      H1965   1.084       .  S
C1962      O1966   1.372       .  S
O1964      H1968   0.992       .  S
O1966      H1967   0.992       .  S
C1969      C1970   1.416       .  A
C1969      C1974   1.409       .  A
C1970      C1971   1.409       .  A
C1970      H1975   1.083       .  S
C1971      C1972   1.408       .  A
C1971      O1976   1.371       .  S
C1972      C1973   1.417       .  A
C1973      C1974   1.410       .  A
C1973      H1977   1.083       .  S
C1974      O1978   1.371       .  S
O1976      H1980   0.991       .  S
O1978      H1979   0.992       .  S
C1981      C1982   1.411       .  A
C1981      C1986   1.413       .  A
C1982      C1983   1.412   1_655  A
C1982      H1987   1.083       .  S
C1983      C1984   1.415       .  A
C1983      O1988   1.371       .  S
C1984      C1985   1.413   1_455  A
C1985      C1986   1.412       .  A
C1985      H1989   1.083       .  S
C1986      O1990   1.371       .  S
O1988      H1992   0.992       .  S
O1990      H1991   0.991       .  S
C1993      C1994   1.403       .  A
C1993      C1998   1.402       .  A
C1994      C1995   1.397       .  A
C1994      H1999   1.084       .  S
C1995      C1996   1.407       .  A
C1995      O2000   1.371       .  S
C1996      C1997   1.405       .  A
C1997      C1998   1.393       .  A
C1997      H2001   1.084       .  S
C1998      O2002   1.373       .  S
O2000      H2004   0.992       .  S
O2002      H2003   0.992       .  S
C2005      C2006   1.415       .  A
C2005      C2010   1.410       .  A
C2006      C2007   1.416       .  A
C2006      H2011   1.084       .  S
C2007      C2008   1.412       .  A
C2007      O2012   1.370       .  S
C2008      C2009   1.413       .  A
C2009      C2010   1.410       .  A
C2009      H2013   1.083       .  S
C2010      O2014   1.371       .  S
O2012      H2016   0.992       .  S
O2014      H2015   0.992       .  S
C2017      C2018   1.403       .  A
C2017      C2022   1.404       .  A
C2018      C2019   1.400       .  A
C2018      H2023   1.084       .  S
C2019      C2020   1.407       .  A
C2019      O2024   1.372       .  S
C2020      C2021   1.402       .  A
C2021      C2022   1.391       .  A
C2021      H2025   1.084       .  S
C2022      O2026   1.372       .  S
O2024      H2028   0.991       .  S
O2026      H2027   0.992       .  S
C2029      C2030   1.405       .  A
C2029      C2034   1.408       .  A
C2030      C2031   1.390       .  A
C2030      H2035   1.084       .  S
C2031      C2032   1.400       .  A
C2031      O2036   1.373       .  S
C2032      C2033   1.396       .  A
C2033      C2034   1.392       .  A
C2033      H2037   1.083       .  S
C2034      O2038   1.371       .  S
O2036      H2040   0.991       .  S
O2038      H2039   0.991       .  S
C2041      C2042   1.402       .  A
C2041      C2046   1.422       .  A
C2042      C2043   1.403       .  A
C2042      H2047   1.083       .  S
C2043      C2044   1.421       .  A
C2043      O2048   1.372       .  S
C2044      C2045   1.401       .  A
C2045      C2046   1.407       .  A
C2045      H2049   1.083       .  S
C2046      O2050   1.371       .  S
O2048      H2052   0.992       .  S
O2050      H2051   0.992       .  S
C2053      C2054   1.398       .  A
C2053      C2058   1.404       .  A
C2054      C2055   1.395       .  A
C2054      H2059   1.084       .  S
C2055      C2056   1.410       .  A
C2055      O2060   1.373       .  S
C2056      C2057   1.399       .  A
C2057      C2058   1.395       .  A
C2057      H2061   1.084       .  S
C2058      O2062   1.369       .  S
O2060      H2064   0.992       .  S
O2062      H2063   0.991       .  S
C2065      C2066   1.401       .  A
C2065      C2070   1.406       .  A
C2066      C2067   1.392       .  A
C2066      H2071   1.082       .  S
C2067      C2068   1.403       .  A
C2067      O2072   1.372       .  S
C2068      C2069   1.399       .  A
C2069      C2070   1.400       .  A
C2069      H2073   1.083       .  S
C2070      O2074   1.374       .  S
O2072      H2076   0.992       .  S
O2074      H2075   0.992       .  S
C2077      C2078   1.399       .  A
C2077      C2082   1.400       .  A
C2078      C2079   1.395       .  A
C2078      H2083   1.082       .  S
C2079      C2080   1.408       .  A
C2079      O2084   1.372       .  S
C2080      C2081   1.406       .  A
C2081      C2082   1.394       .  A
C2081      H2085   1.084       .  S
C2082      O2086   1.374       .  S
O2084      H2088   0.992       .  S
O2086      H2087   0.991       .  S
C2089      C2090   1.415       .  A
C2089      C2094   1.409       .  A
C2090      C2091   1.413       .  A
C2090      H2095   1.083       .  S
C2091      C2092   1.409       .  A
C2091      O2096   1.372       .  S
C2092      C2093   1.413       .  A
C2093      C2094   1.403       .  A
C2093      H2097   1.083       .  S
C2094      O2098   1.372       .  S
O2096      H2100   0.992       .  S
O2098      H2099   0.992       .  S
C2101      C2102   1.404       .  A
C2101      C2106   1.406       .  A
C2102      C2103   1.387       .  A
C2102      H2107   1.083       .  S
C2103      C2104   1.400       .  A
C2103      O2108   1.372       .  S
C2104      C2105   1.403       .  A
C2105      C2106   1.401       .  A
C2105      H2109   1.084       .  S
C2106      O2110   1.370       .  S
O2108      H2112   0.990       .  S
O2110      H2111   0.992   1_455  S
C2113      C2114   1.396       .  A
C2113      C2118   1.423       .  A
C2114      C2115   1.404       .  A
C2114      H2119   1.083       .  S
C2115      C2116   1.423       .  A
C2115      O2120   1.372       .  S
C2116      C2117   1.396       .  A
C2117      C2118   1.403       .  A
C2117      H2121   1.083       .  S
C2118      O2122   1.372       .  S
O2120      H2124   0.992       .  S
O2122      H2123   0.992       .  S
C2125      C2126   1.411       .  A
C2125      C2130   1.407       .  A
C2126      C2127   1.393       .  A
C2126      H2131   1.084       .  S
C2127      C2128   1.404       .  A
C2127      O2132   1.373       .  S
C2128      C2129   1.415       .  A
C2129      C2130   1.414       .  A
C2129      H2133   1.082       .  S
C2130      O2134   1.371       .  S
O2132      H2136   0.992       .  S
O2134      H2135   0.991       .  S
C2137      C2138   1.410       .  A
C2137      C2142   1.414       .  A
C2138      C2139   1.422       .  A
C2138      H2143   1.083       .  S
C2139      C2140   1.419       .  A
C2139      O2144   1.369       .  S
C2140      C2141   1.406       .  A
C2141      C2142   1.399       .  A
C2141      H2145   1.084       .  S
C2142      O2146   1.372       .  S
O2144      H2148   0.991       .  S
O2146      H2147   0.992       .  S
C2149      C2150   1.393       .  A
C2149      C2154   1.406       .  A
C2150      C2151   1.392       .  A
C2150      H2155   1.085       .  S
C2151      C2152   1.408       .  A
C2151      O2156   1.377       .  S
C2152      C2153   1.402       .  A
C2153      C2154   1.398       .  A
C2153      H2157   1.084       .  S
C2154      O2158   1.372       .  S
O2156      H2160   0.992       .  S
O2158      H2159   0.992       .  S
C2161      C2162   1.417       .  A
C2161      C2166   1.408       .  A
C2162      C2163   1.403       .  A
C2162      H2167   1.083       .  S
C2163      C2164   1.401       .  A
C2163      O2168   1.372       .  S
C2164      C2165   1.410       .  A
C2165      C2166   1.403       .  A
C2165      H2169   1.084       .  S
C2166      O2170   1.371       .  S
O2168      H2172   0.992       .  S
O2170      H2171   0.992       .  S
C2173      C2174   1.414       .  A
C2173      C2178   1.404       .  A
C2174      C2175   1.416       .  A
C2174      H2179   1.082       .  S
C2175      C2176   1.408       .  A
C2175      O2180   1.371       .  S
C2176      C2177   1.410       .  A
C2177      C2178   1.393       .  A
C2177      H2181   1.084       .  S
C2178      O2182   1.372       .  S
O2180      H2184   0.991       .  S
O2182      H2183   0.992       .  S
C2185      C2186   1.405       .  A
C2185      C2190   1.414       .  A
C2186      C2187   1.401       .  A
C2186      H2191   1.084       .  S
C2187      C2188   1.414       .  A
C2187      O2192   1.372       .  S
C2188      C2189   1.415       .  A
C2189      C2190   1.423       .  A
C2189      H2193   1.082       .  S
C2190      O2194   1.369       .  S
O2192      H2196   0.991       .  S
O2194      H2195   0.991       .  S
C2197      C2198   1.401       .  A
C2197      C2202   1.402       .  A
C2198      C2199   1.398       .  A
C2198      H2203   1.084       .  S
C2199      C2200   1.407       .  A
C2199      O2204   1.372       .  S
C2200      C2201   1.402       .  A
C2201      C2202   1.390       .  A
C2201      H2205   1.084       .  S
C2202      O2206   1.373       .  S
O2204      H2208   0.992       .  S
O2206      H2207   0.992       .  S
C2209      C2210   1.404       .  A
C2209      C2214   1.424       .  A
C2210      C2211   1.411       .  A
C2210      H2215   1.083       .  S
C2211      C2212   1.418       .  A
C2211      O2216   1.371       .  S
C2212      C2213   1.396       .  A
C2213      C2214   1.399       .  A
C2213      H2217   1.084       .  S
C2214      O2218   1.373       .  S
O2216      H2220   0.992       .  S
O2218      H2219   0.993       .  S
C2221      C2222   1.399       .  A
C2221      C2226   1.420       .  A
C2222      C2223   1.396       .  A
C2222      H2227   1.084       .  S
C2223      C2224   1.419       .  A
C2223      O2228   1.373       .  S
C2224      C2225   1.407       .  A
C2225      C2226   1.424       .  A
C2225      H2229   1.083       .  S
C2226      O2230   1.375       .  S
O2228      H2232   0.993       .  S
O2230      H2231   0.993       .  S
C2233      C2234   1.416       .  A
C2233      C2238   1.419       .  A
C2234      C2235   1.430       .  A
C2234      H2239   1.083       .  S
C2235      C2236   1.418       .  A
C2235      O2240   1.369       .  S
C2236      C2237   1.410       .  A
C2237      C2238   1.401       .  A
C2237      H2241   1.084       .  S
C2238      O2242   1.372       .  S
O2240      H2244   0.992       .  S
O2242      H2243   0.992       .  S
C2245      C2246   1.400       .  A
C2245      C2250   1.406       .  A
C2246      C2247   1.398       .  A
C2246      H2251   1.084       .  S
C2247      C2248   1.407       .  A
C2247      O2252   1.371       .  S
C2248      C2249   1.397       .  A
C2249      C2250   1.388       .  A
C2249      H2253   1.084       .  S
C2250      O2254   1.373       .  S
O2252      H2256   0.992       .  S
O2254      H2255   0.992       .  S
C2257      C2258   1.409       .  A
C2257      C2262   1.402       .  A
C2258      C2259   1.402       .  A
C2258      H2263   1.084       .  S
C2259      C2260   1.408       .  A
C2259      O2264   1.371       .  S
C2260      C2261   1.417       .  A
C2261      C2262   1.405       .  A
C2261      H2265   1.083       .  S
C2262      O2266   1.372       .  S
O2264      H2268   0.991       .  S
O2266      H2267   0.992       .  S
C2269      C2270   1.402       .  A
C2269      C2274   1.406       .  A
C2270      C2271   1.387       .  A
C2270      H2275   1.085       .  S
C2271      C2272   1.400       .  A
C2271      O2276   1.370       .  S
C2272      C2273   1.403       .  A
C2273      C2274   1.401       .  A
C2273      H2277   1.084       .  S
C2274      O2278   1.372       .  S
O2276      H2280   0.991       .  S
O2278      H2279   0.992       .  S
C2281      C2282   1.402       .  A
C2281      C2286   1.406       .  A
C2282      C2283   1.399       .  A
C2282      H2287   1.084       .  S
C2283      C2284   1.410       .  A
C2283      O2288   1.371       .  S
C2284      C2285   1.403       .  A
C2285      C2286   1.391       .  A
C2285      H2289   1.084       .  S
C2286      O2290   1.374       .  S
O2288      H2292   0.992       .  S
O2290      H2291   0.991       .  S
C2293      C2294   1.403       .  A
C2293      C2298   1.419       .  A
C2294      C2295   1.411       .  A
C2294      H2299   1.083       .  S
C2295      C2296   1.417       .  A
C2295      O2300   1.371       .  S
C2296      C2297   1.399       .  A
C2297      C2298   1.399       .  A
C2297      H2301   1.084       .  S
C2298      O2302   1.373       .  S
O2300      H2304   0.992       .  S
O2302      H2303   0.992       .  S
C2305      C2306   1.402       .  A
C2305      C2310   1.407       .  A
C2306      C2307   1.388       .  A
C2306      H2311   1.084       .  S
C2307      C2308   1.401       .  A
C2307      O2312   1.370       .  S
C2308      C2309   1.403       .  A
C2309      C2310   1.401       .  A
C2309      H2313   1.084       .  S
C2310      O2314   1.372       .  S
O2312      H2316   0.991       .  S
O2314      H2315   0.992       .  S
C2317      C2318   1.402       .  A
C2317      C2322   1.413       .  A
C2318      C2319   1.396       .  A
C2318      H2323   1.083       .  S
C2319      C2320   1.406       .  A
C2319      O2324   1.372       .  S
C2320      C2321   1.397       .  A
C2321      C2322   1.392       .  A
C2321      H2325   1.084       .  S
C2322      O2326   1.372       .  S
O2324      H2328   0.992       .  S
O2326      H2327   0.992       .  S
C2329      C2330   1.416       .  A
C2329      C2334   1.402       .  A
C2330      C2331   1.409       .  A
C2330      H2335   1.083       .  S
C2331      C2332   1.404       .  A
C2331      O2336   1.371       .  S
C2332      C2333   1.413       .  A
C2333      C2334   1.393       .  A
C2333      H2337   1.084       .  S
C2334      O2338   1.372       .  S
O2336      H2340   0.992       .  S
O2338      H2339   0.992       .  S
C2341      C2342   1.400       .  A
C2341      C2346   1.404       .  A
C2342      C2343   1.391       .  A
C2342      H2347   1.084       .  S
C2343      C2344   1.402       .  A
C2343      O2348   1.371       .  S
C2344      C2345   1.398       .  A
C2345      C2346   1.392       .  A
C2345      H2349   1.084       .  S
C2346      O2350   1.372       .  S
O2348      H2352   0.992       .  S
O2350      H2351   0.992       .  S
C2353      C2354   1.404       .  A
C2353      C2358   1.398       .  A
C2354      C2355   1.401       .  A
C2354      H2359   1.084       .  S
C2355      C2356   1.407       .  A
C2355      O2360   1.372       .  S
C2356      C2357   1.402       .  A
C2357      C2358   1.385       .  A
C2357      H2361   1.084       .  S
C2358      O2362   1.370       .  S
O2360      H2364   0.992       .  S
O2362      H2363   0.990       .  S
C2365      C2366   1.417       .  A
C2365      C2370   1.401       .  A
C2366      C2367   1.401       .  A
C2366      H2371   1.084       .  S
C2367      C2368   1.398       .  A
C2367      O2372   1.372       .  S
C2368      C2369   1.414       .  A
C2369      C2370   1.403       .  A
C2369      H2373   1.084       .  S
C2370      O2374   1.371       .  S
O2372      H2376   0.992       .  S
O2374      H2375   0.992       .  S
C2377      C2378   1.419       .  A
C2377      C2382   1.408       .  A
C2378      C2379   1.411       .  A
C2378      H2383   1.083       .  S
C2379      C2380   1.404       .  A
C2379      O2384   1.371       .  S
C2380      C2381   1.414       .  A
C2381      C2382   1.407       .  A
C2381      H2385   1.084       .  S
C2382      O2386   1.371       .  S
O2384      H2388   0.991       .  S
O2386      H2387   0.992       .  S
C2389      C2390   1.416       .  A
C2389      C2394   1.414       .  A
C2390      C2391   1.425       .  A
C2390      H2395   1.082       .  S
C2391      C2392   1.415       .  A
C2391      O2396   1.370       .  S
C2392      C2393   1.408       .  A
C2393      C2394   1.403       .  A
C2393      H2397   1.084       .  S
C2394      O2398   1.374       .  S
O2396      H2400   0.992       .  S
O2398      H2399   0.993       .  S
C2401      C2402   1.401       .  A
C2401      C2406   1.413       .  A
C2402      C2403   1.396       .  A
C2402      H2407   1.083       .  S
C2403      C2404   1.405       .  A
C2403      O2408   1.372       .  S
C2404      C2405   1.392       .  A
C2405      C2406   1.382       .  A
C2405      H2409   1.085       .  S
C2406      O2410   1.372       .  S
O2408      H2412   0.992       .  S
O2410      H2411   0.989       .  S
C2413      C2414   1.417       .  A
C2413      C2418   1.408       .  A
C2414      C2415   1.409       .  A
C2414      H2419   1.083       .  S
C2415      C2416   1.403       .  A
C2415      O2420   1.371       .  S
C2416      C2417   1.411       .  A
C2417      C2418   1.401       .  A
C2417      H2421   1.084       .  S
C2418      O2422   1.371       .  S
O2420      H2424   0.992       .  S
O2422      H2423   0.992       .  S
C2425      C2426   1.401       .  A
C2425      C2430   1.422       .  A
C2426      C2427   1.411       .  A
C2426      H2431   1.083       .  S
C2427      C2428   1.426       .  A
C2427      O2432   1.371       .  S
C2428      C2429   1.400       .  A
C2429      C2430   1.406       .  A
C2429      H2433   1.083       .  S
C2430      O2434   1.372       .  S
O2432      H2436   0.992       .  S
O2434      H2435   0.992       .  S
C2437      C2438   1.410       .  A
C2437      C2442   1.421       .  A
C2438      C2439   1.418       .  A
C2438      H2443   1.083       .  S
C2439      C2440   1.419       .  A
C2439      O2444   1.371       .  S
C2440      C2441   1.406       .  A
C2441      C2442   1.409       .  A
C2441      H2445   1.083       .  S
C2442      O2446   1.371       .  S
O2444      H2448   0.992       .  S
O2446      H2447   0.991       .  S
C2449      C2450   1.403       .  A
C2449      C2454   1.403       .  A
C2450      C2451   1.402       .  A
C2450      H2455   1.084       .  S
C2451      C2452   1.411       .  A
C2451      O2456   1.372       .  S
C2452      C2453   1.402       .  A
C2453      C2454   1.388       .  A
C2453      H2457   1.083       .  S
C2454      O2458   1.374       .  S
O2456      H2460   0.992       .  S
O2458      H2459   0.993       .  S
C2461      C2462   1.410       .  A
C2461      C2466   1.402       .  A
C2462      C2463   1.390       .  A
C2462      H2467   1.084       .  S
C2463      C2464   1.401       .  A
C2463      O2468   1.372       .  S
C2464      C2465   1.414       .  A
C2465      C2466   1.405       .  A
C2465      H2469   1.083       .  S
C2466      O2470   1.371       .  S
O2468      H2472   0.993       .  S
O2470      H2471   0.991       .  S
C2473      C2474   1.409       .  A
C2473      C2478   1.411       .  A
C2474      C2475   1.397       .  A
C2474      H2479   1.084       .  S
C2475      C2476   1.407       .  A
C2475      O2480   1.373       .  S
C2476      C2477   1.417       .  A
C2477      C2478   1.419       .  A
C2477      H2481   1.082       .  S
C2478      O2482   1.371       .  S
O2480      H2484   0.992       .  S
O2482      H2483   0.992       .  S
C2485      C2486   1.410       .  A
C2485      C2490   1.422       .  A
C2486      C2487   1.421       .  A
C2486      H2491   1.083       .  S
C2487      C2488   1.419       .  A
C2487      O2492   1.372       .  S
C2488      C2489   1.405       .  A
C2489      C2490   1.406       .  A
C2489      H2493   1.083       .  S
C2490      O2494   1.372       .  S
O2492      H2496   0.991       .  S
O2494      H2495   0.992       .  S
