geometry optimzed in LAMMPS
_audit_creation_date              2020-11-30 
_audit_creation_method            'lammps2cif' 
_symmetry_space_group_name_H-M    'P1' 
_symmetry_Int_Tables_number       1 
_symmetry_cell_setting            triclinic 
loop_ 
_symmetry_equiv_pos_as_xyz 
  x,y,z 
_cell_length_a                    24.65950912037506 
_cell_length_b                    23.243614812609675 
_cell_length_c                    27.229280919113194 
_cell_angle_alpha                 90.74673785180053 
_cell_angle_beta                  91.96823356905475 
_cell_angle_gamma                 90.42447225090568 
loop_ 
_atom_site_label 
_atom_site_type_symbol 
_atom_site_fract_x 
_atom_site_fract_y 
_atom_site_fract_z 
_atom_site_charge 
C1          C  0.84684423  0.87716929  0.85557196    -0.01120
O2          O  0.86821574  0.01518700  0.42913290    -0.73920
O3          O  0.86314938  0.95655246  0.49480060    -0.52830
C4          C  0.86153223  0.00682024  0.47531461     0.79810
O5          O  0.70695754  0.91106917  0.29167979    -0.58520
O6          O  0.75364062  0.88162748  0.23021763    -0.51550
C7          C  0.73223765  0.92279870  0.25302480     0.71820
O8          O  0.71752222  0.91712585  0.45033728    -0.73080
O9          O  0.78626401  0.91208698  0.50764888    -0.53640
C10         C  0.73796061  0.93000325  0.49294601     0.77830
O11         O  0.95020730  0.98278143  0.28437891    -0.58220
O12         O  0.90444742  0.93430527  0.22278934    -0.51340
C13         C  0.94249662  0.96999686  0.23847287     0.74420
Zr14       Zr  0.91536333  0.96171703  0.36563921     2.54710
O15         O  0.92213218  0.06558460  0.35650148    -0.78790
O16         O  0.01022590  0.97071589  0.39298410    -0.92210
Zr17       Zr  0.75740285  0.91519224  0.37054775     2.64680
O18         O  0.76227917  0.01483943  0.40042654    -0.97160
O19         O  0.65965203  0.92951739  0.36334639    -0.79220
O20         O  0.84148567  0.93222190  0.40889961    -0.82580
O21         O  0.83407469  0.93925570  0.32103882    -2.17290
O22         O  0.93825740  0.84871529  0.27695345    -0.65970
O23         O  0.90353310  0.84712323  0.20099619    -0.50530
C24         C  0.93838866  0.82922151  0.23221257     0.72800
O25         O  0.86519600  0.73418403  0.43733561    -0.58880
O26         O  0.87603485  0.77445561  0.51035829    -0.50850
C27         C  0.85353466  0.73607206  0.48330956     0.74600
O28         O  0.77444724  0.71252418  0.28510014    -0.70270
O29         O  0.78912564  0.77662815  0.22453260    -0.48950
C30         C  0.76734001  0.72913528  0.24065896     0.75990
O31         O  0.98789889  0.77218645  0.44191488    -0.65600
O32         O  0.94464981  0.81334403  0.50601072    -0.52800
C33         C  0.98031498  0.77759880  0.48864702     0.74370
Zr34       Zr  0.95443439  0.80409124  0.35928257     2.77540
O35         O  0.96128756  0.69942915  0.35637779    -0.96350
O36         O  0.05203428  0.81245365  0.35066488    -0.77170
Zr37       Zr  0.80322509  0.75387841  0.36391905     2.70070
O38         O  0.79729353  0.64939122  0.35932924    -0.78420
O39         O  0.70561130  0.75761873  0.37575616    -0.97500
Zr40       Zr  0.86362720  0.86027467  0.46377072     2.21500
Zr41       Zr  0.84331567  0.86048495  0.26417746     2.11130
O42         O  0.87415045  0.77661047  0.31000571    -2.46190
O43         O  0.88039021  0.78674767  0.40598602    -0.78210
O44         O  0.92488154  0.88307240  0.31370765    -0.70410
O45         O  0.78123427  0.83164284  0.41753886    -2.31360
O46         O  0.94183297  0.88329898  0.41631382    -2.27570
O47         O  0.77439194  0.83495150  0.31888513    -0.72170
H48         H  0.83547926  0.97525858  0.30567261     0.79830
H49         H  0.75172351  0.82200112  0.43770415     0.80920
H50         H  0.87972146  0.74372555  0.28912244     0.83140
H51         H  0.97332973  0.89072020  0.43756053     0.80750
H52         H  0.64345966  0.89307882  0.37460254     0.43790
H53         H  0.69355537  0.79598565  0.36468900     0.42760
H54         H  0.83421770  0.63707458  0.35083167     0.42430
H55         H  0.93959245  0.68444885  0.32787571     0.40370
H56         H  0.06559552  0.82981167  0.38217491     0.43500
H57         H  0.02352115  0.00503569  0.37575196     0.38280
H58         H  0.90044691  0.07405724  0.32626105     0.44400
H59         H  0.78853316  0.03499643  0.38029581     0.40820
H60         H  0.99961259  0.68978008  0.35102698     0.45730
H61         H  0.02847604  0.93826200  0.37659474     0.44460
H62         H  0.72724156  0.03403174  0.39419309     0.44590
H63         H  0.68949170  0.73080452  0.35074684     0.44950
O64         O  0.86494143  0.44109166  0.94500003    -0.73920
O65         O  0.87287157  0.40744205  0.01973514    -0.52830
C66         C  0.88936331  0.44099165  0.98747429     0.79810
O67         O  0.70620792  0.38148437  0.78518634    -0.58520
O68         O  0.74431588  0.37264787  0.71467705    -0.51550
C69         C  0.71871638  0.40334442  0.74419622     0.71820
O70         O  0.71391780  0.42903943  0.94494967    -0.73080
O71         O  0.77607189  0.40199236  0.00349430    -0.53640
C72         C  0.73241182  0.42984283  0.98953733     0.77830
O73         O  0.93576067  0.48020983  0.78435476    -0.58220
O74         O  0.89940322  0.42815336  0.72016592    -0.51340
C75         C  0.93301843  0.46802028  0.73803749     0.74420
Zr76       Zr  0.90520825  0.44119878  0.86225401     2.54710
O77         O  0.91429249  0.54539175  0.86792508    -0.78790
O78         O  0.00389361  0.43302134  0.86424100    -0.92210
Zr79       Zr  0.74903902  0.41562935  0.86371390     2.64680
O80         O  0.76621663  0.51813897  0.87848937    -0.97160
O81         O  0.65286938  0.43532317  0.87214901    -0.79220
O82         O  0.82976736  0.42276268  0.91031384    -0.82580
O83         O  0.82384711  0.43706516  0.81259326    -2.17290
O84         O  0.90617603  0.30958985  0.76803599    -0.65970
O85         O  0.87962729  0.32305735  0.69085366    -0.50530
C86         C  0.91177149  0.30031391  0.72166670     0.72800
O87         O  0.82334918  0.22127802  0.93109208    -0.58880
O88         O  0.82121731  0.25657751  0.00527310    -0.50850
C89         C  0.80069519  0.22331799  0.97272757     0.74600
O90         O  0.76038374  0.20865296  0.77245543    -0.70270
O91         O  0.77249656  0.27791686  0.71566608    -0.48950
C92         C  0.75207161  0.22922386  0.72959430     0.75990
O93         O  0.96397314  0.23744992  0.93142623    -0.65600
O94         O  0.91972943  0.27650547  0.99587744    -0.52800
C95         C  0.95570060  0.24170117  0.97798512     0.74370
Zr96       Zr  0.92941966  0.27783796  0.85289462     2.77540
O97         O  0.90795310  0.17487297  0.85155158    -0.96350
O98         O  0.02799970  0.28407378  0.85589830    -0.77170
Zr99       Zr  0.77739850  0.24973035  0.85276151     2.70070
O100        O  0.76219373  0.14661624  0.84190549    -0.78420
O101        O  0.67970632  0.26538555  0.84789034    -0.97500
Zr102      Zr  0.84480155  0.33903177  0.95998717     2.21500
Zr103      Zr  0.83009444  0.35617736  0.75617177     2.11130
O104        O  0.84998688  0.26632488  0.80036448    -2.46190
O105        O  0.85623905  0.26258808  0.90218861    -0.78210
O106        O  0.91246415  0.36283246  0.80780266    -0.70410
O107        O  0.76475913  0.32979667  0.90700690    -2.31360
O108        O  0.92264183  0.35656330  0.90932219    -2.27570
O109        O  0.76100339  0.33586182  0.81156402    -0.72170
H110        H  0.82254195  0.47449742  0.79875785     0.79830
H111        H  0.73212098  0.32863995  0.92371893     0.80920
H112        H  0.85243146  0.23236285  0.77963861     0.83140
H113        H  0.95564604  0.35857786  0.92907480     0.80750
H114        H  0.63501080  0.39713661  0.87347009     0.43790
H115        H  0.67394662  0.30696373  0.85337364     0.42760
H116        H  0.79901802  0.12996669  0.84115390     0.42430
H117        H  0.90064303  0.16143938  0.81742576     0.40370
H118        H  0.03729426  0.30767881  0.88555536     0.43500
H119        H  0.01622949  0.41381261  0.89454004     0.38280
H120        H  0.88594711  0.56013722  0.84484504     0.44400
H121        H  0.78687839  0.53492007  0.85174758     0.40820
H122        H  0.94028254  0.15428341  0.86439605     0.45730
H123        H  0.01878733  0.47262201  0.86591325     0.44460
H124        H  0.73044709  0.53700968  0.87842943     0.44590
H125        H  0.66904174  0.25872476  0.81289302     0.44950
O126        O  0.49747797  0.75978321  0.95773308    -0.73920
O127        O  0.43015233  0.78358779  0.00988523    -0.52830
C128        C  0.47479861  0.75683576  0.99943835     0.79810
O129        O  0.45163797  0.97868173  0.78042999    -0.58520
O130        O  0.42055400  0.91242173  0.72380086    -0.51550
C131        C  0.44670596  0.95935393  0.73599911     0.71820
O132        O  0.45736159  0.97338731  0.94538473    -0.73080
O133        O  0.39638751  0.93628891  0.99291969    -0.53640
C134        C  0.44469742  0.94054084  0.98057694     0.77830
O135        O  0.43988333  0.76451177  0.79214240    -0.58220
O136        O  0.45334693  0.80527409  0.72338549    -0.51340
C137        C  0.46074668  0.76270357  0.75032677     0.74420
Zr138      Zr  0.47022962  0.78428107  0.87321469     2.54710
O139        O  0.56447995  0.80446277  0.85516288    -0.78790
O140        O  0.50019487  0.68531666  0.88616958    -0.92210
Zr141      Zr  0.42542013  0.94837302  0.86201117     2.64680
O142        O  0.51653640  0.98981827  0.86798971    -0.97160
O143        O  0.38590156  0.04405148  0.86434294    -0.79220
O144        O  0.43717611  0.86544911  0.91117836    -0.82580
O145        O  0.45455309  0.86358570  0.82068155    -2.17290
O146        O  0.29732475  0.68798363  0.78341894    -0.65970
O147        O  0.31282884  0.75834567  0.72890754    -0.50530
C148        C  0.28827154  0.71116462  0.74121369     0.72800
O149        O  0.23878403  0.94093878  0.93665383    -0.58880
O150        O  0.29362198  0.91275997  0.00072074    -0.50850
C151        C  0.25275757  0.94233226  0.98313117     0.74600
O152        O  0.29392778  0.87429349  0.77211136    -0.70270
O153        O  0.32036599  0.84205442  0.70094215    -0.48950
C154        C  0.28753880  0.87125273  0.72515013     0.75990
O155        O  0.32932519  0.69511215  0.94943800    -0.65600
O156        O  0.34684741  0.75891447  0.00825567    -0.52800
C157        C  0.31307814  0.72700435  0.98428222     0.74370
Zr158      Zr  0.31525333  0.73285851  0.86496317     2.77540
O159        O  0.21688972  0.72448542  0.84555198    -0.96350
O160        O  0.32289456  0.62866447  0.86968360    -0.77170
Zr161      Zr  0.27327555  0.90082374  0.85757833     2.70070
O162        O  0.17612428  0.89100568  0.84057164    -0.78420
O163        O  0.26641061  0.00544630  0.85679575    -0.97500
Zr164      Zr  0.36296326  0.84618077  0.96306805     2.21500
Zr165      Zr  0.37703800  0.83296578  0.76914399     2.11130
O166        O  0.29609031  0.81299192  0.81634353    -2.46190
O167        O  0.28744624  0.81926914  0.90918578    -0.78210
O168        O  0.39572660  0.75104199  0.82143374    -0.70410
O169        O  0.34805990  0.92583479  0.90855529    -2.31360
O170        O  0.39083654  0.76639649  0.91377936    -2.27570
O171        O  0.34981978  0.92257064  0.80891880    -0.72170
H172        H  0.48620868  0.87149137  0.80185220     0.79830
H173        H  0.33876683  0.96081763  0.92567520     0.80920
H174        H  0.26427295  0.79643021  0.79911404     0.83140
H175        H  0.40501511  0.73516180  0.93267613     0.80750
H176        H  0.39452880  0.05875936  0.89801913     0.43790
H177        H  0.28838580  0.01927059  0.82968760     0.42760
H178        H  0.16255491  0.87021949  0.86925032     0.42430
H179        H  0.20181224  0.76385877  0.84527207     0.40370
H180        H  0.36227769  0.62127803  0.86779697     0.43500
H181        H  0.47565815  0.66789641  0.90999005     0.38280
H182        H  0.58580014  0.78431853  0.88108063     0.44400
H183        H  0.51278476  0.02899526  0.85448337     0.40820
H184        H  0.20979694  0.70932844  0.81187424     0.45730
H185        H  0.53646949  0.68706536  0.90287286     0.44460
H186        H  0.53745875  0.96833042  0.84346217     0.44590
H187        H  0.22831531  0.01531834  0.84867166     0.44950
C188        C  0.37024914  0.37957680  0.85786731    -0.01120
C189        C  0.37412970  0.86978426  0.36135483    -0.01120
C190        C  0.88467339  0.37341002  0.35643409    -0.01120
O191        O  0.06902611  0.18214094  0.70633066    -0.73920
O192        O  0.10474603  0.17448269  0.78097800    -0.52830
C193        C  0.07407782  0.20029291  0.75106881     0.79810
O194        O  0.03086939  0.95152444  0.56751603    -0.58520
O195        O  0.05268144  0.98723378  0.49770394    -0.51550
C196        C  0.01630495  0.97491263  0.52743059     0.71820
O197        O  0.04808172  0.97427873  0.71898602    -0.73080
O198        O  0.05401094  0.05566546  0.76280480    -0.53640
C199        C  0.03266379  0.00381013  0.75518726     0.77830
O200        O  0.99826328  0.21620982  0.53981112    -0.58220
O201        O  0.02704162  0.15504620  0.48053012    -0.51340
C202        C  0.00024516  0.20076151  0.49422755     0.74420
Zr203      Zr  0.03301355  0.18364644  0.62070426     2.54710
O204        O  0.93525890  0.18755680  0.62968627    -0.78790
O205        O  0.04141309  0.28673999  0.60758471    -0.92210
Zr206      Zr  0.04070948  0.01451868  0.63925814     2.64680
O207        O  0.95367977  0.04910727  0.66821987    -0.97160
O208        O  0.00345965  0.91829756  0.65119908    -0.79220
O209        O  0.04006015  0.10727368  0.67856071    -0.82580
O210        O  0.02649242  0.09166232  0.58257631    -2.17290
O211        O  0.13383663  0.16384099  0.52004204    -0.65970
O212        O  0.10380544  0.12778433  0.44768362    -0.50530
C213        C  0.13269223  0.16379760  0.47223104     0.72800
O214        O  0.21998112  0.08663236  0.69227500    -0.58880
O215        O  0.20219775  0.09048099  0.77038969    -0.50850
C216        C  0.22897426  0.06899169  0.73645774     0.74600
O217        O  0.23124679  0.99771133  0.53692315    -0.70270
O218        O  0.17002369  0.02360292  0.47710526    -0.48950
C219        C  0.21522199  0.99786494  0.49165906     0.75990
O220        O  0.22605809  0.23767713  0.67479692    -0.65600
O221        O  0.19337827  0.19386128  0.74221146    -0.52800
C222        C  0.22406824  0.23167342  0.72202576     0.74370
Zr223      Zr  0.18473748  0.19113265  0.59880408     2.77540
O224        O  0.28245764  0.18027875  0.59145066    -0.96350
O225        O  0.18418310  0.29437153  0.58695160    -0.77170
Zr226      Zr  0.19866307  0.02916774  0.61556470     2.70070
O227        O  0.29622567  0.02572738  0.60526283    -0.78420
O228        O  0.18798294  0.92547613  0.62311649    -0.97500
Zr229      Zr  0.12933479  0.11450856  0.71747730     2.21500
Zr230      Zr  0.09292412  0.07936427  0.51970884     2.11130
O231        O  0.18318301  0.10063250  0.55589313    -2.46190
O232        O  0.19756665  0.11799270  0.65611967    -0.78210
O233        O  0.09858204  0.17259166  0.56183069    -0.70410
O234        O  0.13019334  0.02288100  0.67519519    -2.31360
O235        O  0.11969655  0.19671725  0.65989098    -2.27570
O236        O  0.11070444  0.01012715  0.58090693    -0.72170
H237        H  0.98956758  0.09595038  0.57170511     0.79830
H238        H  0.13628181  0.99045207  0.69561049     0.80920
H239        H  0.21176779  0.10087106  0.53257775     0.83140
H240        H  0.12646650  0.23617986  0.67148231     0.80750
H241        H  0.03500472  0.89216573  0.65038757     0.43790
H242        H  0.14849624  0.91835159  0.62517154     0.42760
H243        H  0.30913109  0.06561051  0.61158947     0.42430
H244        H  0.28840602  0.14950995  0.56699167     0.40370
H245        H  0.16539965  0.31019232  0.61563305     0.43500
H246        H  0.06421812  0.30302451  0.63495431     0.38280
H247        H  0.91954209  0.17070697  0.59873696     0.44400
H248        H  0.93595658  0.07200784  0.64206034     0.40820
H249        H  0.29757790  0.21628152  0.57852825     0.45730
H250        H  0.00459824  0.30272629  0.61055260     0.44460
H251        H  0.93005667  0.01520854  0.67302753     0.44590
H252        H  0.19732349  0.90930366  0.59071299     0.44950
O253        O  0.96611605  0.70460751  0.03225054    -0.73920
O254        O  0.01898806  0.68251368  0.96713794    -0.52830
C255        C  0.97661216  0.70786196  0.98587467     0.79810
O256        O  0.19833753  0.76305758  0.18797350    -0.58520
O257        O  0.18077930  0.69647396  0.24588000    -0.51550
C258        C  0.20526492  0.74323418  0.23149304     0.71820
O259        O  0.10242964  0.78042906  0.04014788    -0.73080
O260        O  0.07999253  0.72701457  0.97497332    -0.53640
C261        C  0.10600647  0.76911978  0.99388998     0.77830
O262        O  0.02656698  0.61401236  0.18889971    -0.58220
O263        O  0.06457455  0.61089842  0.26309704    -0.51340
C264        C  0.02576973  0.62721274  0.23527090     0.74420
Zr265      Zr  0.01001011  0.66762316  0.11049244     2.54710
O266        O  0.99461373  0.76863070  0.12848366    -0.78790
O267        O  0.91404822  0.64640538  0.11916561    -0.92210
Zr268      Zr  0.15527390  0.73599350  0.10913192     2.64680
O269        O  0.13914252  0.83608744  0.13214742    -0.97160
O270        O  0.25091911  0.74921000  0.09550688    -0.79220
O271        O  0.08115931  0.69874017  0.06392860    -0.82580
O272        O  0.08773438  0.69932116  0.16128883    -2.17290
O273        O  0.03252786  0.48597346  0.17733709    -0.65970
O274        O  0.07946860  0.53128867  0.24017250    -0.50530
C275        C  0.04139655  0.49615487  0.22392397     0.72800
O276        O  0.25183240  0.56644511  0.01050698    -0.58880
O277        O  0.18332384  0.58296166  0.95469490    -0.50850
C278        C  0.23096277  0.56024553  0.96713570     0.74600
O279        O  0.26742055  0.59462313  0.16996147    -0.70270
O280        O  0.22005541  0.60663768  0.23509674    -0.48950
C281        C  0.24741253  0.57371257  0.20843680     0.75990
O282        O  0.11597806  0.51243612  0.01678166    -0.65600
O283        O  0.10751113  0.55441950  0.94534673    -0.52800
C284        C  0.09574008  0.51273695  0.97256780     0.74370
Zr285      Zr  0.06610728  0.51523469  0.09526968     2.77540
O286        O  0.07731312  0.41128292  0.09425035    -0.96350
O287        O  0.96906362  0.50392906  0.08077609    -0.77170
Zr288      Zr  0.21707908  0.58229795  0.09103994     2.70070
O289        O  0.22077260  0.48144759  0.06539676    -0.78420
O290        O  0.31310135  0.60221313  0.07931702    -0.97500
Zr291      Zr  0.10450528  0.63311513  0.00164130     2.21500
Zr292      Zr  0.12824055  0.61553392  0.20136984     2.11130
O293        O  0.14582739  0.54315089  0.14055038    -2.46190
O294        O  0.13488546  0.55850680  0.05208646    -0.78210
O295        O  0.05005687  0.58927397  0.15007062    -0.70410
O296        O  0.18341423  0.66584966  0.04940186    -2.31360
O297        O  0.03076775  0.59512103  0.04992510    -2.27570
O298        O  0.19147234  0.65400137  0.14721746    -0.72170
H299        H  0.07923176  0.72953649  0.18402556     0.79830
H300        H  0.21176783  0.67935895  0.02955187     0.80920
H301        H  0.15046242  0.50533246  0.15332663     0.83140
H302        H  0.99842502  0.58681422  0.03035320     0.80750
H303        H  0.27003765  0.72734283  0.12170343     0.43790
H304        H  0.32083762  0.63930744  0.09649057     0.42760
H305        H  0.25772919  0.47439082  0.05360613     0.42430
H306        H  0.10323423  0.40374345  0.12189614     0.40370
H307        H  0.95281247  0.51959051  0.11082113     0.43500
H308        H  0.90638629  0.61412509  0.09582840     0.38280
H309        H  0.01532103  0.78968736  0.10381935     0.44400
H310        H  0.12558542  0.85594065  0.10235859     0.40820
H311        H  0.04227738  0.39596147  0.10533543     0.45730
H312        H  0.89502150  0.67953326  0.10417202     0.44460
H313        H  0.17550493  0.85292102  0.13945646     0.44590
H314        H  0.33376130  0.57333505  0.09849721     0.44950
O315        O  0.62372228  0.19277803  0.01308975    -0.73920
O316        O  0.57981425  0.15100996  0.94971523    -0.52830
C317        C  0.61171300  0.18986848  0.96618546     0.79810
O318        O  0.77984537  0.09599947  0.16556347    -0.58520
O319        O  0.72796671  0.11286925  0.23087503    -0.51550
C320        C  0.77349116  0.10291987  0.21175261     0.71820
O321        O  0.72829902  0.02954223  0.02414220    -0.73080
O322        O  0.65772176  0.05210886  0.97211667    -0.53640
C323        C  0.70513212  0.02817110  0.98158308     0.77830
O324        O  0.71291977  0.26573880  0.17435076    -0.58220
O325        O  0.70051805  0.20621149  0.23976779    -0.51340
C326        C  0.72250723  0.25051794  0.22015256     0.74420
Zr327      Zr  0.66522015  0.22618220  0.09518926     2.54710
O328        O  0.76063265  0.24020264  0.07952101    -0.78790
O329        O  0.64301773  0.32718759  0.08419731    -0.92210
Zr330      Zr  0.71245744  0.06936017  0.10354189     2.64680
O331        O  0.80055685  0.09122601  0.06987010    -0.97160
O332        O  0.73531977  0.96983980  0.11950858    -0.79220
O333        O  0.67592334  0.13962870  0.04879390    -0.82580
O334        O  0.69333608  0.15285809  0.14560312    -2.17290
O335        O  0.58458406  0.20885806  0.20147713    -0.65970
O336        O  0.62998369  0.19917452  0.27249459    -0.50530
C337        C  0.59137888  0.22143669  0.24841356     0.72800
O338        O  0.51905098  0.01137078  0.06590302    -0.58880
O339        O  0.55876166  0.00973371  0.99719847    -0.50850
C340        C  0.54554532  0.98338754  0.03537709     0.74600
O341        O  0.52721699  0.00435111  0.21834705    -0.70270
O342        O  0.58246227  0.05791138  0.26928319    -0.48950
C343        C  0.54325958  0.01841473  0.26138413     0.75990
O344        O  0.47328446  0.21843824  0.05011315    -0.65600
O345        O  0.50740299  0.16546268  0.98753513    -0.52800
C346        C  0.47696413  0.20730811  0.00344441     0.74370
Zr347      Zr  0.51850111  0.18531674  0.12922557     2.77540
O348        O  0.42907242  0.15074809  0.15130679    -0.96350
O349        O  0.48069548  0.28093537  0.12912636    -0.77170
Zr350      Zr  0.56308828  0.02325565  0.14195120     2.70070
O351        O  0.48207341  0.96445881  0.15191047    -0.78420
O352        O  0.61225435  0.93376438  0.15551667    -0.97500
Zr353      Zr  0.58562445  0.10448418  0.02280430     2.21500
Zr354      Zr  0.63732430  0.12976220  0.21196132     2.11130
O355        O  0.54651707  0.11117000  0.18370369    -2.46190
O356        O  0.52328216  0.09363178  0.08784876    -0.78210
O357        O  0.60608871  0.20788644  0.15890650    -0.70410
O358        O  0.62654336  0.03741979  0.07885034    -2.31360
O359        O  0.57761833  0.19893475  0.06555404    -2.27570
O360        O  0.65447855  0.04347346  0.17009300    -0.72170
H361        H  0.72674436  0.17040502  0.15641020     0.79830
H362        H  0.63685308  0.00187079  0.06339747     0.80920
H363        H  0.52117499  0.10883425  0.20972990     0.83140
H364        H  0.56266457  0.23428887  0.05187961     0.80750
H365        H  0.76209635  0.95967399  0.09461262     0.43790
H366        H  0.64141223  0.93301790  0.13154756     0.42760
H367        H  0.45145581  0.98940769  0.14159527     0.42430
H368        H  0.43251238  0.13367664  0.18422421     0.40370
H369        H  0.51025589  0.30543054  0.11694373     0.43500
H370        H  0.62377658  0.32929107  0.05186388     0.38280
H371        H  0.78110602  0.22869795  0.10963476     0.44400
H372        H  0.81060175  0.13034797  0.08192306     0.40820
H373        H  0.40641230  0.18536157  0.15483272     0.45730
H374        H  0.67819317  0.34681004  0.08002254     0.44460
H375        H  0.82670875  0.06522687  0.08658478     0.44590
H376        H  0.63107084  0.93815216  0.18806562     0.44950
C377        C  0.60157940  0.58654459  0.12033758    -0.01120
C378        C  0.10055984  0.60326186  0.61855352    -0.01120
O379        O  0.22107100  0.45786644  0.44149618    -0.73920
O380        O  0.28176942  0.43022173  0.50197248    -0.52830
C381        C  0.23810990  0.45690850  0.48700585     0.79810
O382        O  0.25090658  0.21213644  0.28993760    -0.58520
O383        O  0.27630935  0.26953059  0.22766044    -0.51550
C384        C  0.25068638  0.22561682  0.24379958     0.71820
O385        O  0.29834250  0.30176425  0.45053603    -0.73080
O386        O  0.31108577  0.32420112  0.52788279    -0.53640
C387        C  0.28797668  0.29311033  0.49499383     0.77830
O388        O  0.24162965  0.39459830  0.27264104    -0.58220
O389        O  0.27017996  0.35619558  0.20547998    -0.51340
C390        C  0.23334540  0.38193289  0.22693330     0.74420
Zr391      Zr  0.24947165  0.42328630  0.35970612     2.54710
O392        O  0.15210061  0.41008620  0.35931406    -0.78790
O393        O  0.23956078  0.52619406  0.34750607    -0.92210
Zr394      Zr  0.27627147  0.25900705  0.37122596     2.64680
O395        O  0.17747793  0.25023685  0.36435714    -0.97160
O396        O  0.30093698  0.15914488  0.38520543    -0.79220
O397        O  0.26980099  0.34910406  0.41495369    -0.82580
O398        O  0.25957972  0.33324768  0.31779049    -2.17290
O399        O  0.40668414  0.49235227  0.26582505    -0.65970
O400        O  0.39877121  0.41332221  0.21772176    -0.50530
C401        C  0.41906230  0.46478146  0.22695928     0.72800
O402        O  0.46153696  0.25090653  0.44550316    -0.58880
O403        O  0.41684924  0.29805992  0.50544418    -0.50850
C404        C  0.45114814  0.25905790  0.49080142     0.74600
O405        O  0.37774484  0.24714215  0.29039488    -0.70270
O406        O  0.36772174  0.26970645  0.21318990    -0.48950
C407        C  0.39346024  0.24255277  0.24580929     0.75990
O408        O  0.41409649  0.50259591  0.42843038    -0.65600
O409        O  0.40568908  0.45332542  0.49559630    -0.52800
C410        C  0.43600253  0.47508778  0.46385358     0.74370
Zr411      Zr  0.40455365  0.45451569  0.34803756     2.77540
O412        O  0.49768804  0.46497816  0.31959135    -0.96350
O413        O  0.39733131  0.55866044  0.34864537    -0.77170
Zr414      Zr  0.42982247  0.28455760  0.36540117     2.70070
O415        O  0.52439995  0.30867555  0.35405193    -0.78420
O416        O  0.45841086  0.18746301  0.38570961    -0.97500
Zr417      Zr  0.35459259  0.37191009  0.46276641     2.21500
Zr418      Zr  0.33633901  0.34433566  0.26423520     2.11130
O419        O  0.41961354  0.36251790  0.31007900    -2.46190
O420        O  0.42436589  0.37649531  0.40376914    -0.78210
O421        O  0.32083677  0.43657692  0.30335030    -0.70410
O422        O  0.35843703  0.27798095  0.41902131    -2.31360
O423        O  0.33170636  0.44498791  0.40325791    -2.27570
O424        O  0.34878609  0.26816127  0.32144721    -0.72170
H425        H  0.22646476  0.31478904  0.30480840     0.79830
H426        H  0.36613330  0.24342195  0.43767318     0.80920
H427        H  0.45017602  0.36471763  0.28942736     0.83140
H428        H  0.32414464  0.48070055  0.42008951     0.80750
H429        H  0.33477559  0.15384586  0.36718578     0.43790
H430        H  0.44121739  0.16098683  0.36121556     0.42760
H431        H  0.52484622  0.35071804  0.34907504     0.42430
H432        H  0.50264902  0.44011292  0.29044274     0.40370
H433        H  0.36275002  0.56662719  0.33052464     0.43500
H434        H  0.27252844  0.54383347  0.36322929     0.38280
H435        H  0.14501992  0.39077528  0.39067588     0.44400
H436        H  0.16370607  0.29000831  0.36192693     0.40820
H437        H  0.50058781  0.50466336  0.30705598     0.45730
H438        H  0.20992738  0.53754723  0.36919157     0.44460
H439        H  0.16764464  0.23214187  0.33217621     0.44590
H440        H  0.49809876  0.18503983  0.38251102     0.44950
O441        O  0.75636161  0.62690518  0.67644684    -0.73920
O442        O  0.69482624  0.64387777  0.73260175    -0.52830
C443        C  0.73989928  0.62279102  0.72062517     0.79810
O444        O  0.60889290  0.73937739  0.51223464    -0.58520
O445        O  0.61406091  0.68359076  0.44696187    -0.51550
C446        C  0.63367707  0.72448105  0.47326862     0.71820
O447        O  0.67101646  0.77098907  0.67798955    -0.73080
O448        O  0.65483592  0.70477003  0.73665608    -0.53640
C449        C  0.67754166  0.75289293  0.72247088     0.77830
O450        O  0.76300521  0.54259955  0.52523361    -0.58220
O451        O  0.70105773  0.55529944  0.46248160    -0.51340
C452        C  0.74734533  0.53568278  0.47958446     0.74420
Zr453      Zr  0.72205825  0.57049834  0.60447768     2.54710
O454        O  0.82067596  0.57581979  0.61007220    -0.78790
O455        O  0.73230860  0.46630616  0.60948676    -0.92210
Zr456      Zr  0.64282886  0.72411061  0.59865121     2.64680
O457        O  0.73660940  0.75059416  0.61905512    -0.97160
O458        O  0.61806483  0.82525974  0.59436176    -0.79220
O459        O  0.67969867  0.64870639  0.64339273    -0.82580
O460        O  0.68714481  0.64611119  0.55443530    -2.17290
O461        O  0.61116009  0.44260526  0.52899511    -0.65970
O462        O  0.61384195  0.50680335  0.46630755    -0.50530
C463        C  0.61117265  0.45529467  0.48297212     0.72800
O464        O  0.47078700  0.57429029  0.63935707    -0.58880
O465        O  0.51659644  0.60542222  0.70666952    -0.50850
C466        C  0.47277015  0.58697298  0.68435072     0.74600
O467        O  0.48792209  0.68614168  0.50754833    -0.70270
O468        O  0.54261711  0.64957637  0.44950634    -0.48950
C469        C  0.50405831  0.68417676  0.46350663     0.75990
O470        O  0.54253899  0.47284771  0.68180014    -0.65600
O471        O  0.56885687  0.53777470  0.74094200    -0.52800
C472        C  0.54212207  0.49133854  0.72686914     0.74370
Zr473      Zr  0.58391765  0.49556895  0.60173249     2.77540
O474        O  0.48789989  0.47001887  0.59922608    -0.96350
O475        O  0.62276528  0.40063970  0.61426089    -0.77170
Zr476      Zr  0.50924612  0.63939124  0.58428012     2.70070
O477        O  0.42198063  0.59615466  0.56014579    -0.78420
O478        O  0.46873256  0.73142554  0.60353112    -0.97500
Zr479      Zr  0.61105856  0.61740987  0.69237767     2.21500
Zr480      Zr  0.61910569  0.60132622  0.49935546     2.11130
O481        O  0.54409033  0.55928163  0.54089492    -2.46190
O482        O  0.59175623  0.59607808  0.60973514    -0.78210
O483        O  0.65370142  0.53015408  0.55361528    -0.70410
O484        O  0.56695642  0.68955021  0.64494830    -2.31360
O485        O  0.65226916  0.53397834  0.65726748    -2.27570
O486        O  0.58005246  0.67782566  0.54390788    -0.72170
H487        H  0.71956464  0.65946619  0.54024388     0.79830
H488        H  0.54982670  0.71881147  0.66444700     0.80920
H489        H  0.51801078  0.54156034  0.51813781     0.83140
H490        H  0.66336314  0.50672150  0.68169429     0.80750
H491        H  0.58022024  0.82637209  0.60532152     0.43790
H492        H  0.49410592  0.76040660  0.59075521     0.42760
H493        H  0.42381027  0.58918701  0.52429933     0.42430
H494        H  0.47465559  0.47628618  0.56518133     0.40370
H495        H  0.62590957  0.39667292  0.65040426     0.43500
H496        H  0.72106187  0.45238497  0.64157207     0.38280
H497        H  0.82974699  0.61314618  0.59514761     0.44400
H498        H  0.76130157  0.72568565  0.60066546     0.40820
H499        H  0.48693381  0.42779727  0.60337300     0.45730
H500        H  0.77167947  0.45904535  0.60783651     0.44460
H501        H  0.74184298  0.79106256  0.60968501     0.44590
H502        H  0.43638725  0.73347547  0.58105231     0.44950
C503        C  0.59221120  0.09189643  0.60602118    -0.01120
C504        C  0.10156092  0.08906299  0.10632462    -0.01120
C505        C  0.17282784  0.09924177  0.18030360     0.24970
C506        C  0.14470810  0.12509631  0.13943441    -0.23140
C507        C  0.15951925  0.18315594  0.13047381     0.19880
C508        C  0.19413818  0.21481416  0.16357714     0.24910
C509        C  0.21718982  0.18995413  0.20656540    -0.23080
C510        C  0.20691779  0.13118646  0.21346747     0.19810
F511        F  0.23001066  0.10399998  0.25266876    -0.13040
F512        F  0.16427722  0.04338535  0.19124331    -0.15400
F513        F  0.20391744  0.27088970  0.15365799    -0.15410
F514        F  0.14194589  0.21006774  0.08910652    -0.13040
C515        C  0.55200435  0.19804471  0.58866654     0.24970
C516        C  0.55493896  0.13754060  0.57615380    -0.23140
C517        C  0.51473810  0.11868045  0.54075392     0.19880
C518        C  0.48013119  0.15767922  0.51512602     0.24910
C519        C  0.48069285  0.21761956  0.52553933    -0.23080
C520        C  0.51615012  0.23643277  0.56388095     0.19810
F521        F  0.51678061  0.29273140  0.57764596    -0.13040
F522        F  0.58059576  0.22130933  0.62750464    -0.15400
F523        F  0.44502749  0.13620182  0.47991442    -0.15410
F524        F  0.50883814  0.06163686  0.53042315    -0.13040
C525        C  0.51957548  0.46779454  0.41691185     0.24970
C526        C  0.48816318  0.44809035  0.45544774    -0.23140
C527        C  0.50526055  0.39842183  0.48103023     0.19880
C528        C  0.55522965  0.37376411  0.46992350     0.24910
C529        C  0.59134748  0.41060028  0.44689660    -0.23720
C530        C  0.56748120  0.43839269  0.40617135     0.19810
F531        F  0.59991365  0.46048025  0.37172412    -0.13040
F532        F  0.51039618  0.52075641  0.39775332    -0.15400
F533        F  0.57485346  0.33008267  0.49762507    -0.15410
F534        F  0.47890867  0.38005121  0.52055437    -0.13040
C535        C  0.20682861  0.55225708  0.52210572     0.24970
C536        C  0.20575095  0.49186276  0.52358702    -0.23140
C537        C  0.17158661  0.46690620  0.55825205     0.19880
C538        C  0.13760633  0.50064307  0.58817738     0.24910
C539        C  0.13633969  0.56184764  0.58527173    -0.23080
C540        C  0.17461725  0.58629064  0.55300725     0.19810
F541        F  0.17962681  0.64425127  0.54967706    -0.13040
F542        F  0.23991122  0.57893352  0.49054559    -0.15400
F543        F  0.10864335  0.47221900  0.62174007    -0.15410
F544        F  0.17086830  0.40934224  0.56404824    -0.13040
C545        C  0.54315802  0.49151952  0.14293291     0.24970
C546        C  0.55629349  0.55148252  0.15015597    -0.23140
C547        C  0.51886616  0.58167956  0.17963854     0.19880
C548        C  0.47389913  0.55437060  0.20144948     0.24910
C549        C  0.46219279  0.49463552  0.19530427    -0.23080
C550        C  0.49786410  0.46447468  0.16483791     0.19810
F551        F  0.48936516  0.40784438  0.15556052    -0.13040
F552        F  0.57209886  0.45759598  0.11289365    -0.15400
F553        F  0.44106018  0.58773429  0.22868532    -0.15410
F554        F  0.52510676  0.63927031  0.18698638    -0.13040
C555        C  0.46921472  0.18903561  0.26816735     0.24970
C556        C  0.44789783  0.23342273  0.24030231    -0.23140
C557        C  0.47732670  0.28350174  0.23142764     0.19880
C558        C  0.52799168  0.29036993  0.25184277     0.24910
C559        C  0.55034670  0.24336298  0.27490458    -0.23080
C560        C  0.51944721  0.19677274  0.29001305     0.19810
F561        F  0.54319984  0.15190123  0.31367469    -0.13040
F562        F  0.43974273  0.14060009  0.27609246    -0.15400
F563        F  0.55899676  0.33644996  0.24011749    -0.15410
F564        F  0.45487838  0.32780486  0.20706787    -0.13040
C565        C  0.24534241  0.47857219  0.16721681     0.24970
C566        C  0.23046401  0.51395184  0.20712878    -0.23140
C567        C  0.18781750  0.49560677  0.23748382     0.19880
C568        C  0.16155490  0.44307636  0.22687837     0.24910
C569        C  0.18941086  0.40569565  0.19747100    -0.23080
C570        C  0.21492239  0.42829494  0.15704615     0.19810
F571        F  0.22914228  0.39205318  0.12016211    -0.13040
F572        F  0.28887323  0.49129957  0.14020856    -0.15400
F573        F  0.12632867  0.42080321  0.25872573    -0.15410
F574        F  0.17214690  0.52729409  0.27650278    -0.13040
C575        C  0.15768763  0.25531549  0.46137385     0.24970
C576        C  0.16718975  0.19859007  0.44870015    -0.23140
C577        C  0.21811847  0.17427529  0.45221938     0.19880
C578        C  0.25629991  0.20079591  0.48258337     0.24910
C579        C  0.24547349  0.25592357  0.50108449    -0.23080
C580        C  0.19646282  0.28362848  0.48909780     0.19810
F581        F  0.19008943  0.34074369  0.49688614    -0.13040
F582        F  0.10831172  0.27952189  0.45290409    -0.15400
F583        F  0.30676697  0.17776473  0.48665968    -0.15410
F584        F  0.22555331  0.11888676  0.43745461    -0.13040
C585        C  0.79615280  0.31197849  0.33728045     0.24970
C586        C  0.84538057  0.33555051  0.32033996    -0.23140
C587        C  0.85555542  0.32273552  0.26989533     0.19880
C588        C  0.81479410  0.29952101  0.23707139     0.24910
C589        C  0.76358214  0.28285540  0.25350629    -0.23080
C590        C  0.75610067  0.28745911  0.30471622     0.19810
F591        F  0.70913479  0.26872252  0.32381736    -0.13040
F592        F  0.78489703  0.31528964  0.38559869    -0.15400
F593        F  0.82694200  0.29002038  0.18942215    -0.15410
F594        F  0.90574585  0.32971490  0.25192294    -0.13040
C595        C  0.90924290  0.44028096  0.28187112     0.24970
C596        C  0.92667336  0.41060160  0.32524065    -0.23140
C597        C  0.98240955  0.42014338  0.33901423     0.19880
C598        C  0.01845425  0.45063090  0.30828428     0.24910
C599        C  0.00252775  0.46852144  0.26043595    -0.23080
C600        C  0.94634451  0.46459544  0.24899870     0.19810
F601        F  0.92629339  0.48724661  0.20647556    -0.13040
F602        F  0.85578098  0.44334542  0.26907268    -0.15400
F603        F  0.06850073  0.46468047  0.32649902    -0.15410
F604        F  0.00218608  0.40288743  0.38345470    -0.13040
C605        C  0.92487258  0.27398862  0.47209742     0.24970
C606        C  0.96899307  0.24006593  0.45677167    -0.23140
C607        C  0.98281993  0.24753677  0.40705370     0.19880
C608        C  0.95594602  0.28877174  0.37572457     0.24910
C609        C  0.91427526  0.32643718  0.39228238    -0.23080
C610        C  0.89785609  0.31449898  0.44103931     0.19810
F611        F  0.85345751  0.33981709  0.45938433    -0.13040
F612        F  0.90590556  0.26687150  0.51786348    -0.15400
F613        F  0.97178535  0.29207867  0.32864519    -0.15410
F614        F  0.02342049  0.21570237  0.38850347    -0.13040
C615        C  0.87107547  0.44915128  0.42960009     0.24970
C616        C  0.84994797  0.42094142  0.38609936    -0.23140
C617        C  0.79727157  0.44084390  0.37030371     0.19880
C618        C  0.76571754  0.47859752  0.39929226     0.24910
C619        C  0.78465524  0.50084681  0.44535730    -0.23080
C620        C  0.83894116  0.48616525  0.45910759     0.19810
F621        F  0.86164112  0.50746250  0.50174019    -0.13040
F622        F  0.92278372  0.43880917  0.44546358    -0.15400
F623        F  0.71543770  0.49265784  0.38181867    -0.15410
F624        F  0.77530592  0.42556105  0.32570275    -0.13040
C625        C  0.28949584  0.80183747  0.34550649     0.24970
C626        C  0.32952353  0.83918803  0.32529134    -0.23140
C627        C  0.32516762  0.84570178  0.27367818     0.19880
C628        C  0.28538040  0.81504094  0.24435038     0.24910
C629        C  0.24667356  0.77688447  0.26476054    -0.23080
C630        C  0.24980494  0.77141205  0.31613131     0.19810
F631        F  0.21424193  0.73640421  0.33851960    -0.13040
F632        F  0.29016554  0.79237939  0.39459214    -0.15400
F633        F  0.28600358  0.82227318  0.19498047    -0.15410
F634        F  0.35891280  0.88194362  0.25064528    -0.13040
C635        C  0.47331291  0.00512373  0.33141119     0.24970
C636        C  0.51095145  0.98205718  0.29854127    -0.23140
C637        C  0.50270755  0.92239113  0.28740767     0.19880
C638        C  0.45879506  0.88907737  0.30534831     0.24910
C639        C  0.41939757  0.91193152  0.33721964    -0.23080
C640        C  0.43005691  0.97125673  0.35114925     0.19810
F641        F  0.39962078  0.99802361  0.38486120    -0.13040
F642        F  0.47736736  0.06147054  0.34414385    -0.15400
F643        F  0.45505910  0.83313937  0.29067933    -0.15410
F644        F  0.53654310  0.89601675  0.25601902    -0.13040
C645        C  0.29758296  0.94668164  0.37747544     0.24970
C646        C  0.33548498  0.90568989  0.39739020    -0.23140
C647        C  0.33002019  0.89521080  0.44833253     0.19880
C648        C  0.29162821  0.92467513  0.47704396     0.24910
C649        C  0.25409752  0.96543484  0.45711350    -0.23080
C650        C  0.25790108  0.97508038  0.40623921     0.19810
F651        F  0.22352046  0.01257430  0.38386546    -0.13040
F652        F  0.29839906  0.95905208  0.32893269    -0.15400
F653        F  0.29060304  0.91104195  0.52536176    -0.15410
F654        F  0.35941682  0.85402899  0.47138048    -0.13040
C655        C  0.45038818  0.83207067  0.42319953     0.24970
C656        C  0.40996114  0.81917635  0.38619382    -0.23140
C657        C  0.41030850  0.76009125  0.36872011     0.19880
C658        C  0.44288581  0.71711423  0.39137524     0.24910
C659        C  0.47873266  0.73012962  0.43087754    -0.23080
C660        C  0.48269233  0.78872427  0.44560125     0.19810
F661        F  0.51786574  0.80436128  0.48288764    -0.13040
F662        F  0.45816121  0.88729003  0.43883228    -0.15400
F663        F  0.43860850  0.66204218  0.37476514    -0.15410
F664        F  0.38188465  0.74253469  0.32768710    -0.13040
C665        C  0.27643123  0.25134079  0.80331424     0.24970
C666        C  0.26003315  0.26997252  0.75605161    -0.23140
C667        C  0.27793977  0.32535750  0.74279618     0.19880
C668        C  0.31113623  0.36013533  0.77529467     0.24910
C669        C  0.33074249  0.34047040  0.82231708    -0.23080
C670        C  0.31025564  0.28516169  0.83546936     0.19810
F671        F  0.32020316  0.26285056  0.88047677    -0.13040
F672        F  0.26000815  0.19904089  0.81906276    -0.15400
F673        F  0.32321293  0.41432684  0.76088777    -0.15410
F674        F  0.26191613  0.34712753  0.69865731    -0.13040
C675        C  0.35142097  0.46305970  0.92536446     0.24970
C676        C  0.33224681  0.42947701  0.88387822    -0.23140
C677        C  0.27594739  0.44222788  0.87065176     0.19880
C678        C  0.24479089  0.48639637  0.89414317     0.24910
C679        C  0.26607589  0.52099920  0.93331049    -0.23080
C680        C  0.32086430  0.50791696  0.94754434     0.19810
F681        F  0.34556354  0.53719640  0.98564917    -0.13040
F682        F  0.39879621  0.44906920  0.94896260    -0.15400
F683        F  0.19185056  0.49244149  0.87999553    -0.15410
F684        F  0.24721963  0.40999876  0.83718678    -0.13040
C685        C  0.46467634  0.25566694  0.91754658     0.24970
C686        C  0.44777839  0.24890041  0.96630773    -0.23140
C687        C  0.40541545  0.28645791  0.97994459     0.19880
C688        C  0.38120216  0.32744069  0.94687943     0.24910
C689        C  0.39968975  0.33666071  0.89806366    -0.23080
C690        C  0.44183029  0.29752326  0.88492671     0.19810
F691        F  0.46161904  0.29763689  0.83935675    -0.13040
F692        F  0.50466449  0.22182139  0.90058225    -0.15400
F693        F  0.33608645  0.35423551  0.96224697    -0.15410
F694        F  0.38528648  0.28235350  0.02553552    -0.13040
C695        C  0.43436481  0.38429351  0.77813229     0.24970
C696        C  0.41835029  0.40844530  0.82460312    -0.23140
C697        C  0.45146253  0.45750467  0.83918918     0.19880
C698        C  0.49400528  0.48023686  0.81030713     0.24910
C699        C  0.50424545  0.45960773  0.76259747    -0.23080
C700        C  0.47399022  0.40991580  0.74801943     0.19810
F701        F  0.48343340  0.38404508  0.70418217    -0.13040
F702        F  0.41395974  0.33313225  0.76122983    -0.15400
F703        F  0.52306799  0.52600833  0.82863313    -0.15410
F704        F  0.44293502  0.48734525  0.88070280    -0.13040
C705        C  0.24253708  0.79845549  0.00286542     0.24970
C706        C  0.25880585  0.74815654  0.97849757    -0.23140
C707        C  0.22336483  0.72026599  0.94480118     0.19880
C708        C  0.17230310  0.74145800  0.93645135     0.24910
C709        C  0.15390797  0.78410924  0.96840202    -0.23080
C710        C  0.19052974  0.81850971  0.99459863     0.19810
F711        F  0.17143144  0.86243276  0.02136271    -0.13040
F712        F  0.27456185  0.82388627  0.03834348    -0.15400
F713        F  0.13756955  0.71105505  0.90579762    -0.15410
F714        F  0.23669755  0.67020234  0.92236601    -0.13040
C715        C  0.20876810  0.92151380  0.72850523     0.24970
C716        C  0.25307451  0.90835916  0.70061678    -0.23140
C717        C  0.28778290  0.95135448  0.68429412     0.19880
C718        C  0.29125595  0.00155579  0.71134427     0.24910
C719        C  0.24943991  0.01398585  0.74239104    -0.23080
C720        C  0.21022948  0.97276691  0.75425528     0.19810
F721        F  0.16735666  0.98635162  0.78224412    -0.13040
F722        F  0.17123211  0.88062011  0.73824728    -0.15400
F723        F  0.33024452  0.04144689  0.70257439    -0.15410
F724        F  0.32893540  0.93819102  0.65411057    -0.13040
C725        C  0.16463944  0.69363440  0.64814445     0.24970
C726        C  0.14768677  0.63476791  0.65238295    -0.23140
C727        C  0.18237875  0.60149846  0.68399730     0.19880
C728        C  0.22799086  0.62534353  0.71086269     0.24910
C729        C  0.24339182  0.68383961  0.70719226    -0.23080
C730        C  0.21045775  0.71716990  0.67507392     0.19810
F731        F  0.22180487  0.77390734  0.66991602    -0.13040
F732        F  0.13968387  0.72932256  0.61582639    -0.15400
F733        F  0.25772575  0.59013764  0.74046185    -0.15410
F734        F  0.17221562  0.54449399  0.68915170    -0.13040
C735        C  0.15964332  0.99347572  0.08935048     0.24970
C736        C  0.14042636  0.04856055  0.07415685    -0.23140
C737        C  0.16743265  0.07063678  0.03258955     0.19880
C738        C  0.20169984  0.03622167  0.00317158     0.24910
C739        C  0.21867032  0.98078548  0.01748076    -0.23080
C740        C  0.20114201  0.96347411  0.06411559     0.19810
F741        F  0.22399109  0.91689936  0.08564144    -0.13040
F742        F  0.13949441  0.96805745  0.12938537    -0.15400
F743        F  0.22127574  0.05918631  0.96171620    -0.15410
F744        F  0.16022144  0.12614481  0.01929121    -0.13040
C745        C  0.43079108  0.61172427  0.75791108     0.24970
C746        C  0.42079722  0.59704013  0.70854961    -0.23140
C747        C  0.39418015  0.64113717  0.68258379     0.19880
C748        C  0.41325344  0.69743104  0.69136476     0.24910
C749        C  0.45215484  0.70664045  0.73016154    -0.23080
C750        C  0.45938736  0.66289192  0.76503168     0.19810
F751        F  0.50024593  0.66705329  0.79918942    -0.13040
F752        F  0.43143678  0.57203319  0.79331796    -0.15400
F753        F  0.39200464  0.74161501  0.66498756    -0.15410
F754        F  0.36093629  0.62922542  0.64309557    -0.13040
C755        C  0.54728389  0.73319458  0.06387604     0.24970
C756        C  0.50154692  0.71634972  0.03544135    -0.23140
C757        C  0.48799304  0.65735658  0.03474631     0.19880
C758        C  0.52000591  0.61680436  0.06101063     0.24910
C759        C  0.56666567  0.63353962  0.09059863    -0.23080
C760        C  0.57582211  0.69445914  0.09407499     0.19810
F761        F  0.61035409  0.71939191  0.12777770    -0.13040
F762        F  0.56645505  0.78746734  0.06146057    -0.15400
F763        F  0.50607599  0.56038720  0.05597424    -0.15410
F764        F  0.44519256  0.63822676  0.00620936    -0.13040
C765        C  0.50545046  0.96450293  0.66108204     0.24970
C766        C  0.47616934  0.99270878  0.69756254    -0.23140
C767        C  0.48054601  0.05312781  0.70040290     0.19880
C768        C  0.51547084  0.08391902  0.67001311     0.24910
C769        C  0.54978642  0.05565970  0.63634877    -0.23080
C770        C  0.54060533  0.99501618  0.63052621     0.19810
F771        F  0.56404107  0.96391500  0.59468847    -0.13040
F772        F  0.50189802  0.90639188  0.65608132    -0.15400
F773        F  0.51812621  0.14184813  0.67623078    -0.15410
F774        F  0.45131674  0.08289657  0.73345436    -0.13040
C775        C  0.53133831  0.88661528  0.97326679     0.24970
C776        C  0.48039784  0.89372185  0.99619847    -0.23140
C777        C  0.47930451  0.88273399  0.04704440     0.19880
C778        C  0.52732322  0.89403169  0.07336595     0.24910
C779        C  0.56652814  0.92420326  0.04755882    -0.23080
C780        C  0.57765911  0.89594170  0.00357635     0.19810
F781        F  0.62727865  0.90061375  0.98414958    -0.13040
F782        F  0.53651211  0.88906268  0.92397320    -0.15400
F783        F  0.53454324  0.87639028  0.12026012    -0.15410
F784        F  0.43246680  0.87510913  0.07105031    -0.13040
C785        C  0.95375462  0.21560729  0.73112955     0.24970
C786        C  0.95471535  0.26804228  0.70696437    -0.23140
C787        C  0.00022178  0.30426262  0.70939079     0.19880
C788        C  0.04149934  0.29190957  0.74256098     0.24910
C789        C  0.03836595  0.24036048  0.76758298    -0.23080
C790        C  0.99055218  0.20869401  0.76951189     0.19810
F791        F  0.99115136  0.15792559  0.79346629    -0.13040
F792        F  0.91094004  0.17869569  0.72525744    -0.15400
F793        F  0.08773220  0.32399568  0.74412005    -0.15410
F794        F  0.99914333  0.35681922  0.68791324    -0.13040
C795        C  0.72492337  0.17129641  0.93925458     0.24970
C796        C  0.74367865  0.21419238  0.97181270    -0.23140
C797        C  0.71077030  0.26166214  0.98296954     0.19880
C798        C  0.66261885  0.26903626  0.95600114     0.24910
C799        C  0.64123939  0.22094382  0.93222593    -0.23080
C800        C  0.67632084  0.17948696  0.91350451     0.19810
F801        F  0.65720877  0.13786845  0.88178208    -0.13040
F802        F  0.75536022  0.12397985  0.93113997    -0.15400
F803        F  0.63135079  0.31595718  0.96317965    -0.15410
F804        F  0.72892914  0.30561031  0.01206784    -0.13040
C805        C  0.67411141  0.16266044  0.61710809     0.24970
C806        C  0.63543405  0.12597065  0.63930868    -0.23140
C807        C  0.64046690  0.12096401  0.69102787     0.19880
C808        C  0.67712840  0.15516784  0.71892285     0.24910
C809        C  0.71374075  0.19362045  0.69695167    -0.23080
C810        C  0.71194100  0.19634550  0.64542983     0.19810
F811        F  0.74690309  0.23127618  0.62225402    -0.13040
F812        F  0.67393808  0.16749202  0.56747526    -0.15400
F813        F  0.67565926  0.15042905  0.76852067    -0.15410
F814        F  0.61253334  0.08097548  0.71587978    -0.13040
C815        C  0.00005471  0.21347765  0.06258014     0.24970
C816        C  0.99016289  0.20232394  0.01190807    -0.23140
C817        C  0.01335911  0.15110629  0.99336572     0.19880
C818        C  0.04616724  0.11441558  0.02307969     0.24910
C819        C  0.06170639  0.12851926  0.07275277    -0.23080
C820        C  0.03430404  0.17754734  0.09216433     0.19810
F821        F  0.04146095  0.19247378  0.14017446    -0.13040
F822        F  0.97723329  0.26004154  0.08392918    -0.15400
F823        F  0.06057492  0.06352196  0.00263498    -0.15410
F824        F  0.00273987  0.13455425  0.94600777    -0.13040
C825        C  0.70206866  0.49928778  0.77435474     0.24970
C826        C  0.73134549  0.46341647  0.74417748    -0.23140
C827        C  0.77726911  0.48426328  0.72025055     0.19880
C828        C  0.79454541  0.54010000  0.72897884     0.24910
C829        C  0.75935453  0.57737669  0.75183443    -0.23080
C830        C  0.71912542  0.55502576  0.78207234     0.19810
F831        F  0.68784151  0.58996397  0.80966812    -0.13040
F832        F  0.65358867  0.48222810  0.79116958    -0.15400
F833        F  0.83946050  0.56036463  0.70733754    -0.15410
F834        F  0.80664279  0.45039965  0.69064328    -0.13040
C835        C  0.70549659  0.46800484  0.07615863     0.24970
C836        C  0.69991332  0.46801992  0.02438096    -0.23140
C837        C  0.66285812  0.50863208  0.00415701     0.19880
C838        C  0.63273366  0.54633766  0.03332964     0.24910
C839        C  0.63479009  0.54429674  0.08550532    -0.23080
C840        C  0.67319105  0.50436258  0.10591926     0.19810
F841        F  0.67982015  0.50057249  0.15545646    -0.13040
F842        F  0.74233901  0.43297589  0.09839936    -0.15400
F843        F  0.60395363  0.58662188  0.00856149    -0.15410
F844        F  0.65681143  0.51478001  0.95475847    -0.13040
C845        C  0.01401067  0.53954673  0.72881201     0.24970
C846        C  0.97358443  0.50283795  0.70591305    -0.23140
C847        C  0.97451961  0.50126994  0.65375693     0.19880
C848        C  0.01370532  0.53352302  0.62678116     0.24910
C849        C  0.05570983  0.56859867  0.64999013    -0.23080
C850        C  0.05236485  0.57198286  0.70215349     0.19810
F851        F  0.08479117  0.60870602  0.72895788    -0.13040
F852        F  0.01729431  0.54489970  0.77853143    -0.15400
F853        F  0.01095370  0.52926348  0.57702830    -0.15410
F854        F  0.93724069  0.46851591  0.62821491    -0.13040
C855        C  0.98406026  0.42282534  0.00207248     0.24970
C856        C  0.94233327  0.46145529  0.99057924    -0.23140
C857        C  0.95137065  0.51310353  0.96762477     0.19880
C858        C  0.00195897  0.52475783  0.95160366     0.24910
C859        C  0.04450481  0.48752860  0.96467454    -0.23080
C860        C  0.03544816  0.43550243  0.98783308     0.19810
F861        F  0.07670325  0.39837691  0.99721327    -0.13040
F862        F  0.97460175  0.37241308  0.02493154    -0.15400
F863        F  0.01016464  0.57503053  0.92803091    -0.15410
F864        F  0.91092117  0.55211630  0.96171306    -0.13040
C865        C  0.79006010  0.06747415  0.29034785     0.24970
C866        C  0.81497745  0.08033945  0.24605191    -0.23140
C867        C  0.83710499  0.03343132  0.22198236     0.19880
C868        C  0.80350663  0.98445534  0.21772552     0.24910
C869        C  0.75956593  0.97836703  0.24978335    -0.23080
C870        C  0.75214633  0.02129234  0.28623121     0.19810
F871        F  0.70664306  0.02168767  0.31263622    -0.13040
F872        F  0.78082707  0.11136418  0.32235095    -0.15400
F873        F  0.81285601  0.94499992  0.18186115    -0.15410
F874        F  0.87274879  0.04348737  0.18609775    -0.13040
C875        C  0.93089408  0.73155177  0.21082439     0.24970
C876        C  0.96441301  0.77876446  0.22309802    -0.23140
C877        C  0.01432126  0.77398606  0.24705271     0.19880
C878        C  0.02911778  0.72157666  0.26408414     0.24910
C879        C  0.99659910  0.67388138  0.25036120    -0.23080
C880        C  0.94594329  0.67878998  0.22736663     0.19810
F881        F  0.91442129  0.63165614  0.21711809    -0.13040
F882        F  0.88186383  0.73757173  0.18736080    -0.15400
F883        F  0.07870409  0.71619176  0.28685822    -0.15410
F884        F  0.04716509  0.82071395  0.25480125    -0.13040
C885        C  0.72982327  0.68473006  0.15757407     0.24970
C886        C  0.72839836  0.69037134  0.20907654    -0.23140
C887        C  0.68829965  0.65650477  0.23207503     0.19880
C888        C  0.65018358  0.62129633  0.20528661     0.24910
C889        C  0.64825703  0.61886906  0.15323339    -0.23080
C890        C  0.69182498  0.64894509  0.13049068     0.19810
F891        F  0.69521569  0.64753483  0.08084885    -0.13040
F892        F  0.76810181  0.71378799  0.13299412    -0.15400
F893        F  0.61589679  0.58921848  0.23166171    -0.15410
F894        F  0.68458864  0.65787460  0.28166031    -0.13040
C895        C  0.04862963  0.07620739  0.18923642     0.24970
C896        C  0.06054926  0.05574809  0.14100096    -0.23140
C897        C  0.02751635  0.00852834  0.12374808     0.19880
C898        C  0.98894194  0.98099946  0.15402070     0.24910
C899        C  0.98064763  0.99984294  0.20291358    -0.23080
C900        C  0.01112928  0.04858359  0.21909857     0.19810
F901        F  0.00382024  0.07179053  0.26441910    -0.13040
F902        F  0.07154221  0.12495295  0.20866547    -0.15400
F903        F  0.95994671  0.93553650  0.13519459    -0.15410
F904        F  0.03237993  0.98852095  0.07712415    -0.13040
C905        C  0.76976606  0.76618639  0.51664025     0.24970
C906        C  0.80002372  0.72221174  0.49514563    -0.23140
C907        C  0.77562766  0.67903531  0.46679270     0.19880
C908        C  0.72207446  0.68489024  0.45252146     0.24910
C909        C  0.69115995  0.72871778  0.47457261    -0.23080
C910        C  0.71524737  0.76898488  0.50670607     0.19810
F911        F  0.68715848  0.81425734  0.52430610    -0.13040
F912        F  0.79354120  0.80985355  0.54329266    -0.15400
F913        F  0.70091441  0.64879573  0.41712155    -0.15410
F914        F  0.80556585  0.63467309  0.45001173    -0.13040
C915        C  0.03619942  0.68570906  0.50270237     0.24970
C916        C  0.01072513  0.73470581  0.52290511    -0.23140
C917        C  0.00985203  0.73663760  0.57504382     0.19880
C918        C  0.03643053  0.69410672  0.60490089     0.24910
C919        C  0.06623358  0.64759011  0.58449543    -0.23080
C920        C  0.06083706  0.64270410  0.53217045     0.19810
F921        F  0.07594682  0.59433987  0.50804719    -0.13040
F922        F  0.03525668  0.67688705  0.45329234    -0.15400
F923        F  0.03424795  0.69956604  0.65446763    -0.15410
F924        F  0.98308676  0.77974864  0.59765210    -0.13040
C925        C  0.66729222  0.01118126  0.60025118     0.24970
C926        C  0.63031004  0.04966807  0.57531525    -0.23140
C927        C  0.63279731  0.04833839  0.52351443     0.19880
C928        C  0.66513354  0.00803926  0.49862598     0.24910
C929        C  0.70212584  0.97037139  0.52331823    -0.23080
C930        C  0.70300909  0.97380955  0.57496767     0.19810
F931        F  0.73705585  0.93955850  0.60143400    -0.13040
F932        F  0.66859558  0.00887518  0.65001593    -0.15400
F933        F  0.65989897  0.00704013  0.44898811    -0.15410
F934        F  0.60553299  0.08695557  0.49551609    -0.13040
C935        C  0.91389517  0.08736771  0.49061365     0.24970
C936        C  0.86997972  0.05722870  0.50914489    -0.23140
C937        C  0.88069863  0.03842076  0.55722254     0.19880
C938        C  0.92866047  0.00622019  0.56302960     0.24910
C939        C  0.96834231  0.01091300  0.52653897    -0.23080
C940        C  0.96202442  0.05518250  0.49106469     0.19810
F941        F  0.99561989  0.05995843  0.45301272    -0.13040
F942        F  0.90469098  0.12615106  0.45452366    -0.15400
F943        F  0.93037727  0.96360865  0.59630185    -0.15410
F944        F  0.83900699  0.02881713  0.58734754    -0.13040
C945        C  0.74875562  0.91578805  0.88408493     0.24970
C946        C  0.80737740  0.91722802  0.88729369    -0.23140
C947        C  0.82928532  0.95643061  0.92310675     0.19880
C948        C  0.79634778  0.99486419  0.94961262     0.24910
C949        C  0.73871409  0.99541759  0.94389065    -0.23080
C950        C  0.71598134  0.95549062  0.90985617     0.19810
F951        F  0.66123222  0.95174169  0.90374062    -0.13040
F952        F  0.72110608  0.87275328  0.86015088    -0.15400
F953        F  0.82178549  0.03195853  0.98182164    -0.15410
F954        F  0.88370259  0.95854813  0.93233283    -0.13040
C955        C  0.93082428  0.88530742  0.79790210     0.24970
C956        C  0.89086320  0.91426747  0.82529782    -0.23140
C957        C  0.89663723  0.97585201  0.82514905     0.19880
C958        C  0.94294418  0.00461730  0.80568216     0.24910
C959        C  0.98587085  0.97465971  0.78378302    -0.23080
C960        C  0.97735845  0.91389815  0.77970781     0.19810
F961        F  0.01492620  0.88063860  0.75795685    -0.13040
F962        F  0.92732168  0.82730161  0.79195572    -0.15400
F963        F  0.94365322  0.06262424  0.80574123    -0.15410
F964        F  0.85603205  0.00984986  0.84051741    -0.13040
C965        C  0.77810598  0.87115481  0.77823654     0.24970
C966        C  0.80932319  0.84190829  0.81537925    -0.23140
C967        C  0.79875581  0.78164254  0.81668097     0.19880
C968        C  0.75291175  0.75570931  0.79195315     0.24910
C969        C  0.71997117  0.78518901  0.75678645    -0.23080
C970        C  0.73557234  0.84336315  0.74931598     0.19810
F971        F  0.70826653  0.87468633  0.71493018    -0.13040
F972        F  0.78655494  0.92824273  0.77163627    -0.15400
F973        F  0.74233730  0.70024159  0.80258512    -0.15410
F974        F  0.83392702  0.74547339  0.83942409    -0.13040
C975        C  0.85420088  0.79442390  0.92485489     0.24970
C976        C  0.87984933  0.83552960  0.89423200    -0.23140
C977        C  0.93747193  0.83785798  0.90242928     0.19880
C978        C  0.96707373  0.79468326  0.92776827     0.24910
C979        C  0.94196006  0.74980330  0.95348890    -0.23080
C980        C  0.88432837  0.75261026  0.95323545     0.19810
F981        F  0.85658595  0.71402167  0.97986477    -0.13040
F982        F  0.79924843  0.79309560  0.92613719    -0.15400
F983        F  0.02158196  0.80056369  0.92957048    -0.15410
F984        F  0.96668759  0.88502916  0.89066743    -0.13040
loop_ 
_geom_bond_atom_site_label_1 
_geom_bond_atom_site_label_2 
_geom_bond_distance 
_geom_bond_site_symmetry_2 
_ccdc_geom_bond_type 
C1          C946   1.616       .  S
C1          C956   1.633       .  S
C1          C966   1.619       .  S
C1          C976   1.639       .  S
O2          Zr14   2.447   1_545  S
O2            C4   1.291       .  A
O3          Zr40   2.382       .  S
O3            C4   1.290   1_565  A
C4          C936   1.490       .  S
O5          Zr17   2.445       .  S
O5            C7   1.273       .  A
O6          Zr41   2.424       .  S
O6            C7   1.263       .  A
C7          C869   1.458       .  S
O8          Zr17   2.415       .  S
O8           C10   1.280       .  A
O9          Zr40   2.583       .  S
O9           C10   1.316       .  A
C10         C929   1.545       .  S
O11         Zr14   2.455       .  S
O11          C13   1.288       .  A
O12         Zr41   2.572       .  S
O12          C13   1.305       .  A
C13         C899   1.541       .  S
Zr14         O15   2.435   1_565  S
Zr14         O16   2.437   1_655  S
Zr14         O20   2.308       .  S
Zr14         O21   2.359       .  S
Zr14         O44   2.315       .  S
Zr14         O46   2.382       .  S
O15          H58   0.989       .  S
O16          H57   0.990   1_565  S
O16          H61   0.990       .  S
Zr17         O18   2.446   1_565  S
Zr17         O19   2.437       .  S
Zr17         O21   2.426       .  S
Zr17         O20   2.318       .  S
Zr17         O45   2.405       .  S
Zr17         O47   2.370       .  S
O18          H59   0.983       .  S
O18          H62   0.986       .  S
O19          H52   0.990       .  S
O20         Zr40   2.313       .  S
O21         Zr41   2.400       .  S
O21          H48   0.941       .  S
O22         Zr34   2.503       .  S
O22          C24   1.294       .  A
O23         Zr41   2.330       .  S
O23          C24   1.264       .  A
C24         C876   1.365       .  S
O25         Zr37   2.523       .  S
O25          C27   1.294       .  A
O26         Zr40   2.394       .  S
O26          C27   1.262       .  A
C27         C906   1.405       .  S
O28         Zr37   2.422       .  S
O28          C30   1.282       .  A
O29         Zr41   2.561       .  S
O29          C30   1.312       .  A
C30         C886   1.544       .  S
O31         Zr34   2.494       .  S
O31          C33   1.297       .  A
O32         Zr40   2.532       .  S
O32          C33   1.310       .  A
C33         C916   1.554   1_655  S
Zr34         O35   2.440       .  S
Zr34         O36   2.433   1_655  S
Zr34         O42   2.430       .  S
Zr34         O43   2.297       .  S
Zr34         O46   2.422       .  S
Zr34         O44   2.336       .  S
O35          H55   0.986       .  S
O35          H60   0.988       .  S
O36          H56   0.990       .  S
Zr37         O38   2.433       .  S
Zr37         O39   2.442       .  S
Zr37         O43   2.307       .  S
Zr37         O42   2.382       .  S
Zr37         O47   2.362       .  S
Zr37         O45   2.386       .  S
O38          H54   0.991       .  S
O39          H53   0.990       .  S
O39          H63   0.988       .  S
Zr40         O43   2.356       .  S
Zr40         O45   2.437       .  S
Zr40         O46   2.419       .  S
Zr41         O42   2.441       .  S
Zr41         O44   2.433       .  S
Zr41         O47   2.375       .  S
O42          H50   0.960       .  S
O45          H49   0.954       .  S
O46          H51   0.966       .  S
O64         Zr76   2.493       .  S
O64          C66   1.286       .  A
O65        Zr102   2.344   1_554  S
O65          C66   1.258   1_554  A
C66         C856   1.386       .  S
O67         Zr79   2.471       .  S
O67          C69   1.279       .  A
O68        Zr103   2.399       .  S
O68          C69   1.257       .  A
C69         C826   1.428       .  S
O70         Zr79   2.420       .  S
O70          C72   1.282       .  A
O71        Zr102   2.559   1_554  S
O71          C72   1.308   1_554  A
C72         C836   1.540   1_556  S
O73         Zr76   2.457       .  S
O73          C75   1.288       .  A
O74        Zr103   2.607       .  S
O74          C75   1.316       .  A
C75         C846   1.577       .  S
Zr76         O77   2.433       .  S
Zr76         O78   2.441   1_655  S
Zr76         O82   2.351       .  S
Zr76         O83   2.381       .  S
Zr76        O106   2.345       .  S
Zr76        O108   2.395       .  S
O77         H120   0.990       .  S
O78         H119   0.983       .  S
O78         H123   0.988       .  S
Zr79         O80   2.443       .  S
Zr79         O81   2.437       .  S
Zr79         O83   2.402       .  S
Zr79         O82   2.327       .  S
Zr79        O107   2.358       .  S
Zr79        O109   2.347       .  S
O80         H121   0.986       .  S
O80         H124   0.988       .  S
O81         H114   0.990       .  S
O82        Zr102   2.408       .  S
O83        Zr103   2.422       .  S
O83         H110   0.953       .  S
O84         Zr96   2.484       .  S
O84          C86   1.290       .  A
O85        Zr103   2.318       .  S
O85          C86   1.258       .  A
C86         C786   1.370       .  S
O87         Zr99   2.480       .  S
O87          C89   1.281       .  A
O88        Zr102   2.372   1_554  S
O88          C89   1.259   1_554  A
C89         C796   1.420       .  S
O90         Zr99   2.397       .  S
O90          C92   1.278       .  A
O91        Zr103   2.519       .  S
O91          C92   1.302       .  A
C92         C809   1.510       .  S
O93         Zr96   2.474       .  S
O93          C95   1.294       .  A
O94        Zr102   2.537       .  S
O94          C95   1.307       .  A
C95         C816   1.547   1_556  S
Zr96         O97   2.447       .  S
Zr96         O98   2.433   1_655  S
Zr96        O104   2.397       .  S
Zr96        O105   2.314       .  S
Zr96        O108   2.385       .  S
Zr96        O106   2.372       .  S
O97         H117   0.987       .  S
O97         H122   0.989       .  S
O98         H118   0.990       .  S
Zr99        O100   2.436       .  S
Zr99        O101   2.438       .  S
Zr99        O105   2.341       .  S
Zr99        O104   2.360       .  S
Zr99        O109   2.339       .  S
Zr99        O107   2.390       .  S
O100        H116   0.990       .  S
O101        H115   0.988       .  S
O101        H125   0.990       .  S
Zr102       O105   2.383       .  S
Zr102       O107   2.411       .  S
Zr102       O108   2.437       .  S
Zr103       O104   2.468       .  S
Zr103       O106   2.433       .  S
Zr103       O109   2.363       .  S
O104        H112   0.968       .  S
O107        H111   0.938       .  S
O108        H113   0.961       .  S
O126       Zr138   2.451       .  S
O126        C128   1.285       .  A
O127       Zr164   2.535   1_554  S
O127        C128   1.306   1_554  A
C128        C756   1.507   1_556  S
O129       Zr141   2.446       .  S
O129        C131   1.287       .  A
O130       Zr165   2.492       .  S
O130        C131   1.297       .  A
C131        C766   1.513       .  S
O132       Zr141   2.439       .  S
O132        C134   1.279       .  A
O133       Zr164   2.369       .  S
O133        C134   1.252       .  A
C134        C776   1.463       .  S
O135       Zr138   2.345       .  S
O135        C137   1.266       .  A
O136       Zr165   2.380       .  S
O136        C137   1.250       .  A
C137        C749   1.419       .  S
Zr138       O139   2.436       .  S
Zr138       O140   2.447       .  S
Zr138       O144   2.307       .  S
Zr138       O145   2.374       .  S
Zr138       O168   2.394       .  S
Zr138       O170   2.318       .  S
O139        H182   0.990       .  S
O140        H181   0.990       .  S
O140        H185   0.990       .  S
Zr141       O142   2.438       .  S
Zr141       O143   2.436   1_565  S
Zr141       O145   2.384       .  S
Zr141       O144   2.375       .  S
Zr141       O169   2.385       .  S
Zr141       O171   2.388       .  S
O142        H183   0.990   1_565  S
O142        H186   0.990       .  S
O143        H176   0.990       .  S
O144       Zr164   2.393       .  S
O145       Zr165   2.429       .  S
O145        H172   0.966       .  S
O146       Zr158   2.466       .  S
O146        C148   1.289       .  A
O147       Zr165   2.551       .  S
O147        C148   1.302       .  A
C148        C729   1.546       .  S
O149       Zr161   2.513       .  S
O149        C151   1.300       .  A
O150       Zr164   2.547   1_554  S
O150        C151   1.305   1_554  A
C151        C739   1.557   1_556  S
O152       Zr161   2.471       .  S
O152        C154   1.284       .  A
O153       Zr165   2.298       .  S
O153        C154   1.258       .  A
C154        C716   1.378       .  S
O155       Zr158   2.487       .  S
O155        C157   1.274       .  A
O156       Zr164   2.423   1_554  S
O156        C157   1.269   1_554  A
C157        C706   1.434       .  S
Zr158       O159   2.470       .  S
Zr158       O160   2.435       .  S
Zr158       O166   2.341       .  S
Zr158       O167   2.443       .  S
Zr158       O170   2.373       .  S
Zr158       O168   2.384       .  S
O159        H179   0.990       .  S
O159        H184   0.988       .  S
O160        H180   0.990       .  S
Zr161       O162   2.433       .  S
Zr161       O163   2.439   1_565  S
Zr161       O167   2.395       .  S
Zr161       O166   2.397       .  S
Zr161       O171   2.398       .  S
Zr161       O169   2.335       .  S
O162        H178   0.990       .  S
O163        H177   0.986       .  S
O163        H187   0.987       .  S
Zr164       O167   2.405       .  S
Zr164       O169   2.410       .  S
Zr164       O170   2.394       .  S
Zr165       O166   2.456       .  S
Zr165       O168   2.430       .  S
Zr165       O171   2.444       .  S
O166        H174   0.974       .  S
O169        H173   0.965       .  S
O170        H175   0.957       .  S
C188        C669   1.616       .  S
C188        C676   1.663       .  S
C188        C689   1.645       .  S
C188        C696   1.660       .  S
C189        C626   1.605       .  S
C189        C639   1.640       .  S
C189        C646   1.619       .  S
C189        C656   1.618       .  S
C190        C586   1.606       .  S
C190        C596   1.615       .  S
C190        C609   1.634       .  S
C190        C616   1.626       .  S
O191       Zr203   2.467       .  S
O191        C193   1.286       .  A
O192       Zr229   2.307       .  S
O192        C193   1.254       .  A
C193        C789   1.369       .  S
O194       Zr206   2.430   1_565  S
O194        C196   1.268       .  A
O195       Zr230   2.413   1_565  S
O195        C196   1.263       .  A
C196        C939   1.454   1_465  S
O197       Zr206   2.377   1_565  S
O197        C199   1.265   1_565  A
O198       Zr229   2.647       .  S
O198        C199   1.323       .  A
C199        C959   1.569   1_445  S
O200       Zr203   2.466   1_655  S
O200        C202   1.290   1_655  A
O201       Zr230   2.616       .  S
O201        C202   1.312       .  A
C202        C606   1.565   1_455  S
Zr203       O204   2.434   1_455  S
Zr203       O205   2.436       .  S
Zr203       O209   2.392       .  S
Zr203       O210   2.367       .  S
Zr203       O233   2.329       .  S
Zr203       O235   2.372       .  S
O204        H247   0.990       .  S
O205        H246   0.988       .  S
O205        H250   0.989       .  S
Zr206       O207   2.449   1_455  S
Zr206       O208   2.441   1_545  S
Zr206       O210   2.401       .  S
Zr206       O209   2.395       .  S
Zr206       O234   2.388       .  S
Zr206       O236   2.388       .  S
O207        H248   0.987       .  S
O207        H251   0.989       .  S
O208        H241   0.991       .  S
O209       Zr229   2.414       .  S
O210       Zr230   2.425       .  S
O210        H237   0.954   1_455  S
O211       Zr223   2.519       .  S
O211        C213   1.301       .  A
O212       Zr230   2.297       .  S
O212        C213   1.264       .  A
C213        C576   1.352       .  S
O214       Zr226   2.503       .  S
O214        C216   1.289       .  A
O215       Zr229   2.340       .  S
O215        C216   1.255       .  A
C216        C719   1.387       .  S
O217       Zr226   2.419   1_565  S
O217        C219   1.281       .  A
O218       Zr230   2.606       .  S
O218        C219   1.320   1_545  A
C219        C649   1.558       .  S
O220       Zr223   2.504       .  S
O220        C222   1.298       .  A
O221       Zr229   2.490       .  S
O221        C222   1.296       .  A
C222        C666   1.532       .  S
Zr223       O224   2.440       .  S
Zr223       O225   2.425       .  S
Zr223       O231   2.392       .  S
Zr223       O232   2.339       .  S
Zr223       O235   2.353       .  S
Zr223       O233   2.354       .  S
O224        H244   0.986       .  S
O224        H249   0.988       .  S
O225        H245   0.990       .  S
Zr226       O227   2.433       .  S
Zr226       O228   2.435   1_545  S
Zr226       O232   2.329       .  S
Zr226       O231   2.363       .  S
Zr226       O236   2.372       .  S
Zr226       O234   2.387       .  S
O227        H243   0.989       .  S
O228        H242   0.990       .  S
O228        H252   0.990       .  S
Zr229       O232   2.413       .  S
Zr229       O234   2.408       .  S
Zr229       O235   2.495       .  S
Zr230       O231   2.447       .  S
Zr230       O233   2.439       .  S
Zr230       O236   2.364       .  S
O231        H239   0.965       .  S
O234        H238   0.952   1_545  S
O235        H240   0.977       .  S
O253       Zr265   2.520   1_655  S
O253        C255   1.301   1_554  A
O254       Zr291   2.564   1_556  S
O254        C255   1.318   1_455  A
C255        C979   1.562       .  S
O256       Zr268   2.435       .  S
O256        C258   1.283       .  A
O257       Zr292   2.546       .  S
O257        C258   1.310       .  A
C258        C629   1.543       .  S
O259       Zr268   2.489       .  S
O259        C261   1.289   1_554  A
O260       Zr291   2.385   1_556  S
O260        C261   1.261       .  A
C261        C709   1.433       .  S
O262       Zr265   2.509       .  S
O262        C264   1.296       .  A
O263       Zr292   2.342       .  S
O263        C264   1.264       .  A
C264        C879   1.372   1_455  S
Zr265       O266   2.427   1_455  S
Zr265       O267   2.434   1_455  S
Zr265       O271   2.317       .  S
Zr265       O272   2.429       .  S
Zr265       O295   2.336       .  S
Zr265       O297   2.413       .  S
O266        H309   0.990   1_655  S
O267        H308   0.990       .  S
O267        H312   0.990       .  S
Zr268       O269   2.441       .  S
Zr268       O270   2.418       .  S
Zr268       O272   2.385       .  S
Zr268       O271   2.324       .  S
Zr268       O296   2.410       .  S
Zr268       O298   2.349       .  S
O269        H310   0.988       .  S
O269        H313   0.989       .  S
O270        H303   0.990       .  S
O271       Zr291   2.355       .  S
O272       Zr292   2.448       .  S
O272        H299   0.959       .  S
O273       Zr285   2.510       .  S
O273        C275   1.298       .  A
O274       Zr292   2.550       .  S
O274        C275   1.302       .  A
C275        C599   1.547       .  S
O276       Zr288   2.407       .  S
O276        C278   1.278   1_554  A
O277       Zr291   2.634   1_556  S
O277        C278   1.327       .  A
C278        C679   1.573       .  S
O279       Zr288   2.457       .  S
O279        C281   1.274       .  A
O280       Zr292   2.425       .  S
O280        C281   1.263       .  A
C281        C566   1.447       .  S
O282       Zr285   2.502       .  S
O282        C284   1.287   1_554  A
O283       Zr291   2.374   1_556  S
O283        C284   1.266       .  A
C284        C859   1.397       .  S
Zr285       O286   2.434       .  S
Zr285       O287   2.424   1_455  S
Zr285       O293   2.366       .  S
Zr285       O294   2.327       .  S
Zr285       O297   2.396       .  S
Zr285       O295   2.308       .  S
O286        H306   0.989       .  S
O286        H311   0.990       .  S
O287        H307   0.990       .  S
Zr288       O289   2.440       .  S
Zr288       O290   2.442       .  S
Zr288       O294   2.315       .  S
Zr288       O293   2.430       .  S
Zr288       O298   2.352       .  S
Zr288       O296   2.401       .  S
O289        H305   0.991       .  S
O290        H304   0.990       .  S
O290        H314   0.989       .  S
Zr291       O294   2.338       .  S
Zr291       O296   2.416       .  S
Zr291       O297   2.447       .  S
Zr292       O293   2.398       .  S
Zr292       O295   2.412       .  S
Zr292       O298   2.361       .  S
O293        H301   0.956       .  S
O296        H300   0.952       .  S
O297        H302   0.961   1_455  S
O315       Zr327   2.536       .  S
O315        C317   1.302   1_554  A
O316       Zr353   2.278   1_556  S
O316        C317   1.261       .  A
C317        C799   1.401       .  S
O318       Zr330   2.400       .  S
O318        C320   1.281       .  A
O319       Zr354   2.314       .  S
O319        C320   1.275       .  A
C320        C866   1.466       .  S
O321       Zr330   2.386       .  S
O321        C323   1.274   1_554  A
O322       Zr353   2.589   1_556  S
O322        C323   1.317       .  A
C323        C949   1.538   1_545  S
O324       Zr327   2.576       .  S
O324        C326   1.315       .  A
O325       Zr354   2.450       .  S
O325        C326   1.291       .  A
C326        C589   1.524       .  S
Zr327       O328   2.426       .  S
Zr327       O329   2.435       .  S
Zr327       O333   2.383       .  S
Zr327       O334   2.298       .  S
Zr327       O357   2.345       .  S
Zr327       O359   2.359       .  S
O328        H371   0.989       .  S
O329        H370   0.988       .  S
O329        H374   0.988       .  S
Zr330       O331   2.440       .  S
Zr330       O332   2.426   1_545  S
Zr330       O334   2.301       .  S
Zr330       O333   2.386       .  S
Zr330       O358   2.315       .  S
Zr330       O360   2.426       .  S
O331        H372   0.990       .  S
O331        H375   0.990       .  S
O332        H365   0.990       .  S
O333       Zr353   2.445       .  S
O334       Zr354   2.376       .  S
O334        H361   0.952       .  S
O335       Zr347   2.562       .  S
O335        C337   1.312       .  A
O336       Zr354   2.304       .  S
O336        C337   1.256       .  A
C337        C559   1.361       .  S
O338       Zr350   2.317       .  S
O338        C340   1.253   1_545  A
O339       Zr353   2.384   1_556  S
O339        C340   1.264   1_546  A
C340        C779   1.510       .  S
O341       Zr350   2.334       .  S
O341        C343   1.262       .  A
O342       Zr354   2.690       .  S
O342        C343   1.338       .  A
C343        C636   1.562   1_545  S
O344       Zr347   2.523       .  S
O344        C346   1.300       .  A
O345       Zr353   2.569   1_556  S
O345        C346   1.311   1_556  A
C346        C686   1.569   1_554  S
Zr347       O348   2.439       .  S
Zr347       O349   2.416       .  S
Zr347       O355   2.379       .  S
Zr347       O356   2.403       .  S
Zr347       O359   2.326       .  S
Zr347       O357   2.334       .  S
O348        H368   0.986       .  S
O348        H373   0.988       .  S
O349        H369   0.990       .  S
Zr350       O351   2.437   1_545  S
Zr350       O352   2.441   1_545  S
Zr350       O356   2.408       .  S
Zr350       O355   2.370       .  S
Zr350       O360   2.397       .  S
Zr350       O358   2.388       .  S
O351        H367   0.991       .  S
O352        H366   0.988       .  S
O352        H376   0.990       .  S
Zr353       O356   2.399       .  S
Zr353       O358   2.399       .  S
Zr353       O359   2.484       .  S
Zr354       O355   2.377       .  S
Zr354       O357   2.448       .  S
Zr354       O360   2.343       .  S
O355        H363   0.963       .  S
O358        H362   0.962       .  S
O359        H364   0.976       .  S
C377        C546   1.624       .  S
C377        C759   1.606       .  S
C377        C839   1.605       .  S
C377        C889   1.610       .  S
C378        C539   1.603       .  S
C378        C726   1.622       .  S
C378        C849   1.636       .  S
C378        C919   1.619       .  S
O379       Zr391   2.483       .  S
O379        C381   1.295       .  A
O380       Zr417   2.516       .  S
O380        C381   1.302       .  A
C381        C536   1.527       .  S
O382       Zr394   2.512       .  S
O382        C384   1.299       .  A
O383       Zr418   2.454       .  S
O383        C384   1.287       .  A
C384        C509   1.519       .  S
O385       Zr394   2.409       .  S
O385        C387   1.264       .  A
O386       Zr417   2.385       .  S
O386        C387   1.261       .  A
C387        C579   1.369       .  S
O388       Zr391   2.455       .  S
O388        C390   1.284       .  A
O389       Zr418   2.266       .  S
O389        C390   1.249       .  A
C390        C569   1.443       .  S
Zr391       O392   2.418       .  S
Zr391       O393   2.432       .  S
Zr391       O397   2.349       .  S
Zr391       O398   2.389       .  S
Zr391       O421   2.395       .  S
Zr391       O423   2.362       .  S
O392        H435   0.990       .  S
O393        H434   0.989       .  S
O393        H438   0.990       .  S
Zr394       O395   2.444       .  S
Zr394       O396   2.435       .  S
Zr394       O398   2.302       .  S
Zr394       O397   2.405       .  S
Zr394       O422   2.405       .  S
Zr394       O424   2.291       .  S
O395        H436   0.989       .  S
O395        H439   0.989       .  S
O396        H429   0.990       .  S
O397       Zr417   2.475       .  S
O398       Zr418   2.443       .  S
O398        H425   0.973       .  S
O399       Zr411   2.418       .  S
O399        C401   1.277       .  A
O400       Zr418   2.588       .  S
O400        C401   1.311       .  A
C401        C549   1.557       .  S
O402       Zr414   2.433       .  S
O402        C404   1.280       .  A
O403       Zr417   2.573       .  S
O403        C404   1.312       .  A
C404        C519   1.530       .  S
O405       Zr414   2.517       .  S
O405        C407   1.290       .  A
O406       Zr418   2.360       .  S
O406        C407   1.254       .  A
C407        C556   1.374       .  S
O408       Zr411   2.448       .  S
O408        C410   1.271       .  A
O409       Zr417   2.411       .  S
O409        C410   1.270       .  A
C410        C526   1.459       .  S
Zr411       O412   2.460       .  S
Zr411       O413   2.428       .  S
Zr411       O419   2.400       .  S
Zr411       O420   2.422       .  S
Zr411       O423   2.393       .  S
Zr411       O421   2.391       .  S
O412        H432   0.987       .  S
O412        H437   0.991       .  S
O413        H433   0.990       .  S
Zr414       O415   2.426       .  S
Zr414       O416   2.434       .  S
Zr414       O420   2.373       .  S
Zr414       O419   2.381       .  S
Zr414       O424   2.320       .  S
Zr414       O422   2.331       .  S
O415        H431   0.988       .  S
O416        H430   0.985       .  S
O416        H440   0.987       .  S
Zr417       O420   2.397       .  S
Zr417       O422   2.477       .  S
Zr417       O423   2.419       .  S
Zr418       O419   2.398       .  S
Zr418       O421   2.420       .  S
Zr418       O424   2.388       .  S
O419        H427   0.957       .  S
O422        H426   0.972       .  S
O423        H428   0.965       .  S
O441       Zr453   2.465       .  S
O441        C443   1.287       .  A
O442       Zr479   2.378       .  S
O442        C443   1.269       .  A
C443        C829   1.439       .  S
O444       Zr456   2.501       .  S
O444        C446   1.287       .  A
O445       Zr480   2.402       .  S
O445        C446   1.266       .  A
C446        C909   1.419       .  S
O447       Zr456   2.482       .  S
O447        C449   1.293       .  A
O448       Zr479   2.561       .  S
O448        C449   1.316       .  A
C449        C969   1.560       .  S
O450       Zr453   2.494       .  S
O450        C452   1.296       .  A
O451       Zr480   2.526       .  S
O451        C452   1.306       .  A
C452        C619   1.556       .  S
Zr453       O454   2.434       .  S
Zr453       O455   2.442       .  S
Zr453       O459   2.361       .  S
Zr453       O460   2.386       .  S
Zr453       O483   2.328       .  S
Zr453       O485   2.435       .  S
O454        H497   0.990       .  S
O455        H496   0.984       .  S
O455        H500   0.989       .  S
Zr456       O457   2.433       .  S
Zr456       O458   2.437       .  S
Zr456       O460   2.448       .  S
Zr456       O459   2.321       .  S
Zr456       O484   2.429       .  S
Zr456       O486   2.356       .  S
O457        H498   0.988       .  S
O457        H501   0.987       .  S
O458        H491   0.990       .  S
O459       Zr479   2.310       .  S
O460       Zr480   2.431       .  S
O460        H487   0.952       .  S
O461       Zr473   2.435       .  S
O461        C463   1.291       .  A
O462       Zr480   2.364       .  S
O462        C463   1.288       .  A
C463        C529   1.489       .  S
O464       Zr476   2.361       .  S
O464        C466   1.256       .  A
O465       Zr479   2.390       .  S
O465        C466   1.289       .  A
C466        C746   1.480       .  S
O467       Zr476   2.411       .  S
O467        C469   1.277       .  A
O468       Zr480   2.560       .  S
O468        C469   1.313       .  A
C469        C659   1.522       .  S
O470       Zr473   2.500       .  S
O470        C472   1.295       .  A
O471       Zr479   2.527       .  S
O471        C472   1.307       .  A
C472        C699   1.560       .  S
Zr473       O474   2.435       .  S
Zr473       O475   2.435       .  S
Zr473       O481   2.424       .  S
Zr473       O482   2.349       .  S
Zr473       O485   2.386       .  S
Zr473       O483   2.342       .  S
O474        H494   0.985       .  S
O474        H499   0.990       .  S
O475        H495   0.990       .  S
Zr476       O477   2.434       .  S
Zr476       O478   2.426       .  S
Zr476       O482   2.363       .  S
Zr476       O481   2.374       .  S
Zr476       O486   2.278       .  S
Zr476       O484   2.424       .  S
O477        H493   0.990       .  S
O478        H492   0.991       .  S
O478        H502   0.990       .  S
Zr479       O482   2.330       .  S
Zr479       O484   2.377       .  S
Zr479       O485   2.399       .  S
Zr480       O481   2.409       .  S
Zr480       O483   2.376       .  S
Zr480       O486   2.369       .  S
O481        H489   0.964       .  S
O484        H488   0.966       .  S
O485        H490   0.959       .  S
C503        C516   1.618       .  S
C503        C769   1.597       .  S
C503        C806   1.577       .  S
C503        C926   1.610       .  S
C504        C506   1.596       .  S
C504        C736   1.619       .  S
C504        C819   1.617       .  S
C504        C896   1.608       .  S
C505        C506   1.432       .  A
C505        C510   1.412       .  A
C505        F512   1.352       .  S
C506        C507   1.422       .  A
C507        C508   1.415       .  A
C507        F514   1.355       .  S
C508        C509   1.416       .  A
C508        F513   1.356       .  S
C509        C510   1.404       .  A
C510        F511   1.358       .  S
C515        C516   1.446       .  A
C515        C520   1.421       .  A
C515        F522   1.355       .  S
C516        C517   1.422       .  A
C517        C518   1.423       .  A
C517        F524   1.358       .  S
C518        C519   1.418       .  A
C518        F523   1.357       .  S
C519        C520   1.402       .  A
C520        F521   1.356       .  S
C525        C526   1.405       .  A
C525        C530   1.407       .  A
C525        F532   1.361       .  S
C526        C527   1.416       .  A
C527        C528   1.404       .  A
C527        F534   1.349       .  S
C528        C529   1.400       .  A
C528        F533   1.355       .  S
C529        C530   1.405       .  A
C530        F531   1.357       .  S
C535        C536   1.405       .  A
C535        C540   1.415       .  A
C535        F542   1.358       .  S
C536        C537   1.414       .  A
C537        C538   1.422       .  A
C537        F544   1.349       .  S
C538        C539   1.426       .  A
C538        F543   1.355       .  S
C539        C540   1.431       .  A
C540        F541   1.356       .  S
C545        C546   1.438       .  A
C545        C550   1.430       .  A
C545        F552   1.353       .  S
C546        C547   1.426       .  A
C547        C548   1.425       .  A
C547        F554   1.358       .  S
C548        C549   1.423       .  A
C548        F553   1.357       .  S
C549        C550   1.413       .  A
C550        F551   1.351       .  S
C555        C556   1.385       .  A
C555        C560   1.365       .  A
C555        F562   1.359       .  S
C556        C557   1.395       .  A
C557        C558   1.357       .  A
C557        F564   1.345       .  S
C558        C559   1.377       .  A
C558        F563   1.359       .  S
C559        C560   1.394       .  A
C560        F561   1.359       .  S
C565        C566   1.414       .  A
C565        C570   1.403       .  A
C565        F572   1.355       .  S
C566        C567   1.426       .  A
C567        C568   1.400       .  A
C567        F574   1.354       .  S
C568        C569   1.377       .  A
C568        F573   1.353       .  S
C569        C570   1.393       .  A
C570        F571   1.359       .  S
C575        C576   1.382       .  A
C575        C580   1.358       .  A
C575        F582   1.359       .  S
C576        C577   1.382       .  A
C577        C578   1.369       .  A
C577        F584   1.359       .  S
C578        C579   1.402       .  A
C578        F583   1.360       .  S
C579        C580   1.404       .  A
C580        F581   1.353       .  S
C585        C586   1.422       .  A
C585        C590   1.416       .  A
C585        F592   1.355       .  S
C586        C587   1.433       .  A
C587        C588   1.421       .  A
C587        F594   1.356       .  S
C588        C589   1.408       .  A
C588        F593   1.357       .  S
C589        C590   1.416       .  A
C590        F591   1.357       .  S
C595        C596   1.430       .  A
C595        C600   1.421       .  A
C595        F602   1.355       .  S
C596        C597   1.427       .  A
C597        C598   1.432   1_655  A
C597        F604   1.356   1_655  S
C598        C599   1.416       .  A
C598        F603   1.350       .  S
C599        C600   1.412   1_455  A
C600        F601   1.357       .  S
C605        C606   1.419       .  A
C605        C610   1.427       .  A
C605        F612   1.358       .  S
C606        C607   1.420       .  A
C607        C608   1.441       .  A
C607        F614   1.357   1_655  S
C608        C609   1.435       .  A
C608        F613   1.356       .  S
C609        C610   1.431       .  A
C610        F611   1.354       .  S
C615        C616   1.427       .  A
C615        C620   1.432       .  A
C615        F622   1.356       .  S
C616        C617   1.436       .  A
C617        C618   1.426       .  A
C617        F624   1.355       .  S
C618        C619   1.414       .  A
C618        F623   1.356       .  S
C619        C620   1.423       .  A
C620        F621   1.357       .  S
C625        C626   1.438       .  A
C625        C630   1.421       .  A
C625        F632   1.357       .  S
C626        C627   1.416       .  A
C627        C628   1.425       .  A
C627        F634   1.354       .  S
C628        C629   1.429       .  A
C628        F633   1.358       .  S
C629        C630   1.406       .  A
C630        F631   1.357       .  S
C635        C636   1.415   1_545  A
C635        C640   1.444   1_545  A
C635        F642   1.353       .  S
C636        C637   1.427       .  A
C637        C638   1.430       .  A
C637        F644   1.358       .  S
C638        C639   1.426       .  A
C638        F643   1.357       .  S
C639        C640   1.445       .  A
C640        F641   1.354       .  S
C645        C646   1.438       .  A
C645        C650   1.434       .  A
C645        F652   1.357       .  S
C646        C647   1.422       .  A
C647        C648   1.422       .  A
C647        F654   1.353       .  S
C648        C649   1.428       .  A
C648        F653   1.358       .  S
C649        C650   1.412       .  A
C650        F651   1.356   1_565  S
C655        C656   1.420       .  A
C655        C660   1.420       .  A
C655        F662   1.357       .  S
C656        C657   1.448       .  A
C657        C658   1.420       .  A
C657        F664   1.355       .  S
C658        C659   1.397       .  A
C658        F663   1.354       .  S
C659        C660   1.416       .  A
C660        F661   1.357       .  S
C665        C666   1.410       .  A
C665        C670   1.415       .  A
C665        F672   1.358       .  S
C666        C667   1.413       .  A
C667        C668   1.424       .  A
C667        F674   1.358       .  S
C668        C669   1.435       .  A
C668        F673   1.358       .  S
C669        C670   1.432       .  A
C670        F671   1.352       .  S
C675        C676   1.430       .  A
C675        C680   1.430       .  A
C675        F682   1.358       .  S
C676        C677   1.456       .  A
C677        C678   1.443       .  A
C677        F684   1.350       .  S
C678        C679   1.412       .  A
C678        F683   1.357       .  S
C679        C680   1.429       .  A
C680        F681   1.357       .  S
C685        C686   1.416       .  A
C685        C690   1.431       .  A
C685        F692   1.356       .  S
C686        C687   1.422       .  A
C687        C688   1.438       .  A
C687        F694   1.357   1_556  S
C688        C689   1.438       .  A
C688        F693   1.355       .  S
C689        C690   1.438       .  A
C690        F691   1.349       .  S
C695        C696   1.446       .  A
C695        C700   1.429       .  A
C695        F702   1.357       .  S
C696        C697   1.441       .  A
C697        C698   1.434       .  A
C697        F704   1.342       .  S
C698        C699   1.410       .  A
C698        F703   1.358       .  S
C699        C700   1.415       .  A
C700        F701   1.358       .  S
C705        C706   1.405   1_554  A
C705        C710   1.380   1_554  A
C705        F712   1.354       .  S
C706        C707   1.395       .  A
C707        C708   1.368       .  A
C707        F714   1.355       .  S
C708        C709   1.399       .  A
C708        F713   1.362       .  S
C709        C710   1.376       .  A
C710        F711   1.344   1_556  S
C715        C716   1.386       .  A
C715        C720   1.374       .  A
C715        F722   1.357       .  S
C716        C717   1.398       .  A
C717        C718   1.372   1_565  A
C717        F724   1.362       .  S
C718        C719   1.385       .  A
C718        F723   1.360       .  S
C719        C720   1.405   1_545  A
C720        F721   1.361       .  S
C725        C726   1.435       .  A
C725        C730   1.427       .  A
C725        F732   1.353       .  S
C726        C727   1.431       .  A
C727        C728   1.425       .  A
C727        F734   1.357       .  S
C728        C729   1.415       .  A
C728        F733   1.357       .  S
C729        C730   1.415       .  A
C730        F731   1.356       .  S
C735        C736   1.430   1_565  A
C735        C740   1.432       .  A
C735        F742   1.354       .  S
C736        C737   1.432       .  A
C737        C738   1.427       .  A
C737        F744   1.356       .  S
C738        C739   1.413   1_545  A
C738        F743   1.357   1_554  S
C739        C740   1.418       .  A
C740        F741   1.355       .  S
C745        C746   1.396       .  A
C745        C750   1.386       .  A
C745        F752   1.343       .  S
C746        C747   1.407       .  A
C747        C748   1.402       .  A
C747        F754   1.354       .  S
C748        C749   1.415       .  A
C748        F753   1.359       .  S
C749        C750   1.408       .  A
C750        F751   1.350       .  S
C755        C756   1.397       .  A
C755        C760   1.404       .  A
C755        F762   1.347       .  S
C756        C757   1.409       .  A
C757        C758   1.419       .  A
C757        F764   1.358       .  S
C758        C759   1.430       .  A
C758        F763   1.357       .  S
C759        C760   1.434       .  A
C760        F761   1.352       .  S
C765        C766   1.406       .  A
C765        C770   1.415       .  A
C765        F772   1.358       .  S
C766        C767   1.409   1_565  A
C767        C768   1.412       .  A
C767        F774   1.358       .  S
C768        C769   1.426       .  A
C768        F773   1.356       .  S
C769        C770   1.432   1_545  A
C770        F771   1.355       .  S
C775        C776   1.432       .  A
C775        C780   1.400   1_556  A
C775        F782   1.355       .  S
C776        C777   1.412   1_556  A
C777        C778   1.385       .  A
C777        F784   1.358       .  S
C778        C779   1.403       .  A
C778        F783   1.353       .  S
C779        C780   1.395       .  A
C780        F781   1.354   1_554  S
C785        C786   1.393       .  A
C785        C790   1.372       .  A
C785        F792   1.359       .  S
C786        C787   1.397   1_655  A
C787        C788   1.372       .  A
C787        F794   1.361   1_455  S
C788        C789   1.389       .  A
C788        F793   1.357       .  S
C789        C790   1.388   1_455  A
C790        F791   1.356       .  S
C795        C796   1.391       .  A
C795        C800   1.383       .  A
C795        F802   1.356       .  S
C796        C797   1.411       .  A
C797        C798   1.387       .  A
C797        F804   1.349   1_556  S
C798        C799   1.377       .  A
C798        F803   1.356       .  S
C799        C800   1.402       .  A
C800        F801   1.359       .  S
C805        C806   1.429       .  A
C805        C810   1.415       .  A
C805        F812   1.357       .  S
C806        C807   1.416       .  A
C807        C808   1.397       .  A
C807        F814   1.355       .  S
C808        C809   1.418       .  A
C808        F813   1.358       .  S
C809        C810   1.404       .  A
C810        F811   1.357       .  S
C815        C816   1.413   1_455  A
C815        C820   1.429       .  A
C815        F822   1.357   1_455  S
C816        C817   1.419   1_654  A
C817        C818   1.421   1_556  A
C817        F824   1.357       .  S
C818        C819   1.426       .  A
C818        F823   1.356       .  S
C819        C820   1.433       .  A
C820        F821   1.353       .  S
C825        C826   1.387       .  A
C825        C830   1.371       .  A
C825        F832   1.353       .  S
C826        C827   1.412       .  A
C827        C828   1.378       .  A
C827        F834   1.351       .  S
C828        C829   1.388       .  A
C828        F833   1.357       .  S
C829        C830   1.411       .  A
C830        F831   1.361       .  S
C835        C836   1.412       .  A
C835        C840   1.429       .  A
C835        F842   1.357       .  S
C836        C837   1.422       .  A
C837        C838   1.408       .  A
C837        F844   1.358   1_554  S
C838        C839   1.421       .  A
C838        F843   1.352       .  S
C839        C840   1.434       .  A
C840        F841   1.357       .  S
C845        C846   1.429   1_455  A
C845        C850   1.429       .  A
C845        F852   1.358       .  S
C846        C847   1.421       .  A
C847        C848   1.445   1_655  A
C847        F854   1.357       .  S
C848        C849   1.437       .  A
C848        F853   1.356       .  S
C849        C850   1.427       .  A
C850        F851   1.354       .  S
C855        C856   1.401   1_554  A
C855        C860   1.369   1_654  A
C855        F862   1.356       .  S
C856        C857   1.381       .  A
C857        C858   1.362   1_655  A
C857        F864   1.360       .  S
C858        C859   1.404       .  A
C858        F863   1.358       .  S
C859        C860   1.391       .  A
C860        F861   1.359       .  S
C865        C866   1.407       .  A
C865        C870   1.419       .  A
C865        F872   1.359       .  S
C866        C867   1.390       .  A
C867        C868   1.404   1_545  A
C867        F874   1.358       .  S
C868        C869   1.422       .  A
C868        F873   1.358       .  S
C869        C870   1.415   1_565  A
C870        F871   1.353       .  S
C875        C876   1.399       .  A
C875        C880   1.362       .  A
C875        F882   1.357       .  S
C876        C877   1.379   1_655  A
C877        C878   1.357       .  A
C877        F884   1.360       .  S
C878        C879   1.403   1_455  A
C878        F883   1.359       .  S
C879        C880   1.384       .  A
C880        F881   1.359       .  S
C885        C886   1.408       .  A
C885        C890   1.428       .  A
C885        F892   1.357       .  S
C886        C887   1.426       .  A
C887        C888   1.418       .  A
C887        F894   1.356       .  S
C888        C889   1.417       .  A
C888        F893   1.354       .  S
C889        C890   1.440       .  A
C890        F891   1.357       .  S
C895        C896   1.432       .  A
C895        C900   1.409       .  A
C895        F902   1.355       .  S
C896        C897   1.427       .  A
C897        C898   1.433   1_445  A
C897        F904   1.356   1_545  S
C898        C899   1.418       .  A
C898        F903   1.357       .  S
C899        C900   1.412   1_665  A
C900        F901   1.359       .  S
C905        C906   1.403       .  A
C905        C910   1.364       .  A
C905        F912   1.358       .  S
C906        C907   1.380       .  A
C907        C908   1.372       .  A
C907        F914   1.356       .  S
C908        C909   1.416       .  A
C908        F913   1.358       .  S
C909        C910   1.389       .  A
C910        F911   1.355       .  S
C915        C916   1.419       .  A
C915        C920   1.417       .  A
C915        F922   1.358       .  S
C916        C917   1.421       .  A
C917        C918   1.436       .  A
C917        F924   1.357   1_455  S
C918        C919   1.429       .  A
C918        F923   1.357       .  S
C919        C920   1.429       .  A
C920        F921   1.356       .  S
C925        C926   1.442       .  A
C925        C930   1.429   1_545  A
C925        F932   1.356       .  S
C926        C927   1.414       .  A
C927        C928   1.416       .  A
C927        F934   1.353       .  S
C928        C929   1.427   1_545  A
C928        F933   1.353       .  S
C929        C930   1.407       .  A
C930        F931   1.357       .  S
C935        C936   1.398       .  A
C935        C940   1.407       .  A
C935        F942   1.357       .  S
C936        C937   1.403       .  A
C937        C938   1.410       .  A
C937        F944   1.356       .  S
C938        C939   1.423       .  A
C938        F943   1.351   1_545  S
C939        C940   1.426       .  A
C940        F941   1.354       .  S
C945        C946   1.445       .  A
C945        C950   1.425       .  A
C945        F952   1.354       .  S
C946        C947   1.416       .  A
C947        C948   1.419       .  A
C947        F954   1.357       .  S
C948        C949   1.425       .  A
C948        F953   1.357   1_565  S
C949        C950   1.403       .  A
C950        F951   1.357       .  S
C955        C956   1.424       .  A
C955        C960   1.428       .  A
C955        F962   1.358       .  S
C956        C957   1.438       .  A
C957        C958   1.439   1_565  A
C957        F964   1.354   1_565  S
C958        C959   1.416   1_545  A
C958        F963   1.348       .  S
C959        C960   1.429       .  A
C960        F961   1.358   1_655  S
C965        C966   1.432       .  A
C965        C970   1.434       .  A
C965        F972   1.357       .  S
C966        C967   1.424       .  A
C967        C968   1.422       .  A
C967        F974   1.353       .  S
C968        C969   1.421       .  A
C968        F973   1.351       .  S
C969        C970   1.422       .  A
C970        F971   1.357       .  S
C975        C976   1.434       .  A
C975        C980   1.444       .  A
C975        F982   1.357       .  S
C976        C977   1.431       .  A
C977        C978   1.418       .  A
C977        F984   1.355       .  S
C978        C979   1.415       .  A
C978        F983   1.349   1_655  S
C979        C980   1.423       .  A
C980        F981   1.357       .  S
