geometry optimzed in LAMMPS
_audit_creation_date              2020-11-30 
_audit_creation_method            'lammps2cif' 
_symmetry_space_group_name_H-M    'P1' 
_symmetry_Int_Tables_number       1 
_symmetry_cell_setting            triclinic 
loop_ 
_symmetry_equiv_pos_as_xyz 
  x,y,z 
_cell_length_a                    28.50190107 
_cell_length_b                    29.1897881900049 
_cell_length_c                    28.34101186913732 
_cell_angle_alpha                 90.34231310185575 
_cell_angle_beta                  89.4123928472103 
_cell_angle_gamma                 90.91095629595831 
loop_ 
_atom_site_label 
_atom_site_type_symbol 
_atom_site_fract_x 
_atom_site_fract_y 
_atom_site_fract_z 
_atom_site_charge 
N1          N  0.21461487  0.93519377  0.00043167    -0.03000
C2          C  0.18801504  0.92706216  0.03954359    -0.00500
C3          C  0.14182064  0.92014316  0.02635223    -0.23300
C4          C  0.14134730  0.91868964  0.97794670    -0.23500
C5          C  0.18720797  0.92513660  0.96266114    -0.00600
H6          H  0.11343571  0.90778752  0.04878794     0.13200
H7          H  0.11245117  0.90540818  0.95719841     0.13300
N8          N  0.58081711  0.98567409  0.00120288    -0.03000
C9          C  0.57461195  0.01163601  0.04104120    -0.00500
C10         C  0.55084294  0.05116264  0.03155626    -0.23300
C11         C  0.54344096  0.05146003  0.98441844    -0.23500
C12         C  0.56288450  0.01202241  0.96585378    -0.00600
H13         H  0.54475599  0.07950810  0.05555544     0.13200
H14         H  0.53140551  0.08077580  0.96498832     0.13300
N15         N  0.93073814  0.95188208  0.29694116    -0.03000
C16         C  0.92035696  0.99089802  0.27303455    -0.00500
C17         C  0.91297561  0.98038623  0.22612383    -0.23300
C18         C  0.91440274  0.93371853  0.22191623    -0.23500
C19         C  0.92291060  0.91634663  0.26634779    -0.00600
H20         H  0.90052544  0.00337807  0.19933432     0.13200
H21         H  0.90209937  0.91468932  0.19146589     0.13300
N22         N  0.93065533  0.94043180  0.72329752    -0.03000
C23         C  0.93650600  0.97894031  0.75000804    -0.00500
C24         C  0.94007601  0.96669673  0.79696945    -0.23300
C25         C  0.94194631  0.91984214  0.79838633    -0.23500
C26         C  0.93864650  0.90438300  0.75239180    -0.00600
H27         H  0.95031856  0.98906135  0.82581240     0.13200
H28         H  0.95306739  0.90028055  0.82848674     0.13300
N29         N  0.91271077  0.57516990  0.04408840    -0.03000
C30         C  0.94355168  0.56092844  0.07745864    -0.00500
C31         C  0.91989475  0.54952967  0.11869794    -0.23300
C32         C  0.87370584  0.55784350  0.11158976    -0.23500
C33         C  0.87011132  0.57451065  0.06635872    -0.00600
H34         H  0.93521383  0.54192278  0.15249533     0.13200
H35         H  0.84655102  0.55756579  0.13859984     0.13300
N36         N  0.94260659  0.31305702  0.97516776    -0.03000
C37         C  0.98177207  0.33269337  0.95470098    -0.00500
C38         C  0.96859859  0.36245826  0.91947515    -0.23300
C39         C  0.92104134  0.35907418  0.91579494    -0.23500
C40         C  0.90604432  0.32676031  0.94805855    -0.00600
H41         H  0.99102326  0.37841504  0.89312038     0.13200
H42         H  0.90095474  0.37209141  0.88669279     0.13300
N43         N  0.57780229  0.93666249  0.00137031    -0.03000
C44         C  0.56269719  0.91229772  0.96285545    -0.00500
C45         C  0.53142215  0.87803298  0.97630365    -0.23300
C46         C  0.52918636  0.87863017  0.02418794    -0.23500
C47         C  0.55903052  0.91331629  0.03916165    -0.00600
H48         H  0.51796630  0.85051044  0.95424306     0.13200
H49         H  0.51362086  0.85175301  0.04566869     0.13300
N50         N  0.26240434  0.95031168  0.99968663    -0.03000
C51         C  0.28827214  0.96232039  0.96086293    -0.00500
C52         C  0.33373629  0.97218883  0.97500738    -0.23300
C53         C  0.33373324  0.97181243  0.02361584    -0.23500
C54         C  0.28821734  0.96229221  0.03820594    -0.00600
H55         H  0.36126255  0.98771006  0.95360956     0.13200
H56         H  0.36103578  0.98718208  0.04507454     0.13300
N57         N  0.92047195  0.93797800  0.67407131    -0.03000
C58         C  0.91442854  0.97371547  0.64397568    -0.00500
C59         C  0.91266291  0.95645186  0.59838774    -0.23300
C60         C  0.91044944  0.90935117  0.60159764    -0.23500
C61         C  0.91202007  0.89876602  0.64904800    -0.00600
H62         H  0.90287025  0.97547161  0.56742287     0.13200
H63         H  0.89914066  0.88667328  0.57345035     0.13300
N64         N  0.95189928  0.94946522  0.34233650    -0.03000
C65         C  0.96795700  0.98590384  0.36806813    -0.00500
C66         C  0.98118416  0.97096072  0.41208381    -0.23300
C67         C  0.97783369  0.92391216  0.41137347    -0.23500
C68         C  0.96311284  0.91098383  0.36675792    -0.00600
H69         H  0.00004051  0.99083105  0.43831922     0.13200
H70         H  0.99391885  0.90190518  0.43699436     0.13300
N71         N  0.91897332  0.56829908  0.99451011    -0.03000
C72         C  0.88367206  0.55111594  0.96703759    -0.00500
C73         C  0.90060119  0.51752502  0.93721415    -0.23300
C74         C  0.94798385  0.51625820  0.94365463    -0.23500
C75         C  0.95907802  0.54996613  0.97642317    -0.00600
H76         H  0.88218579  0.50154516  0.90807460     0.13200
H77         H  0.97224679  0.49960047  0.91970399     0.13300
N78         N  0.93806915  0.30838264  0.02523779    -0.03000
C79         C  0.89768380  0.31920063  0.04912137    -0.00500
C80         C  0.90789953  0.34342340  0.08992002    -0.23300
C81         C  0.95539921  0.34529247  0.09355527    -0.23500
C82         C  0.97320153  0.32229030  0.05488009    -0.00600
H83         H  0.88341539  0.35275041  0.11768926     0.13200
H84         H  0.97449149  0.35598328  0.12467266     0.13300
N85         N  0.41687057  0.44659319  0.83474637    -0.03000
C86         C  0.39749422  0.48121450  0.86073005    -0.00500
C87         C  0.38207053  0.46389390  0.90356777    -0.23300
C88         C  0.38715813  0.41722784  0.90151255    -0.23500
C89         C  0.40542251  0.40687650  0.85734520    -0.00600
H90         H  0.36069782  0.48154960  0.92946888     0.13200
H91         H  0.36997425  0.39342703  0.92546831     0.13300
N92         N  0.41650704  0.45289294  0.14542663    -0.03000
C93         C  0.39192841  0.48845943  0.12654074    -0.00500
C94         C  0.35712553  0.47162170  0.09716640    -0.23300
C95         C  0.35690846  0.42525694  0.10092134    -0.23500
C96         C  0.39173165  0.41460275  0.13219660    -0.00600
H97         H  0.32914238  0.49087247  0.08157448     0.13200
H98         H  0.32972120  0.40236277  0.08777564     0.13300
N99         N  0.08163710  0.41071545  0.49813341    -0.03000
C100        C  0.08539530  0.38593892  0.45710976    -0.00500
C101        C  0.08166537  0.33949262  0.46541381    -0.23300
C102        C  0.07600095  0.33435301  0.51254588    -0.23500
C103        C  0.07664158  0.37774989  0.53212421    -0.00600
H104        H  0.08608844  0.31208358  0.43990627     0.13200
H105        H  0.07573237  0.30209910  0.53124050     0.13300
O106        O  0.17593839  0.27927714  0.68382259    -0.78100
C107        C  0.28888819  0.26272837  0.78424633     0.83000
O108        O  0.21856560  0.12086147  0.67059963    -0.79200
O109        O  0.22885387  0.13207874  0.84216482    -0.80700
O110        O  0.10092790  0.23376594  0.82720199    -0.80500
O111        O  0.10572026  0.26759128  0.71634677    -0.79100
Zn112      Zn  0.21776198  0.22992811  0.71016533     1.55700
O113        O  0.16670600  0.22663185  0.86845583    -0.80500
Cd114      Cd  0.11664510  0.21240068  0.75965457     1.59700
Cd115      Cd  0.18351911  0.12721773  0.73350482     1.59600
O116        O  0.06967111  0.16036901  0.74200273    -0.80500
O117        O  0.18313312  0.19227729  0.75520649    -1.91000
Cd118      Cd  0.21209958  0.19679362  0.81920719     1.59900
O119        O  0.11639000  0.10208787  0.72507070    -0.80400
O120        O  0.27180285  0.23792268  0.81725861    -0.79100
C121        C  0.24251464  0.14895992  0.64561884     0.83400
C122        C  0.13295466  0.29024515  0.68904844     0.83100
O123        O  0.27158351  0.26176509  0.74299779    -0.78000
C124        C  0.12397172  0.23837453  0.86521525     0.83900
O125        O  0.24502262  0.19136594  0.65661761    -0.78100
C126        C  0.07561765  0.11882010  0.72954960     0.84000
C127        C  0.22863705  0.09218244  0.82350415     0.84400
O128        O  0.21523257  0.08470359  0.78144349    -0.80600
N129        N  0.80165152  0.44401961  0.49444263    -0.03000
C130        C  0.82356665  0.42075075  0.52945080    -0.00500
C131        C  0.86065001  0.39642547  0.51087024    -0.23300
C132        C  0.85918115  0.40118372  0.46310790    -0.23500
C133        C  0.82078692  0.42786140  0.45329972    -0.00600
H134        H  0.88075834  0.37076285  0.52877708     0.13200
H135        H  0.87783498  0.37937171  0.43852759     0.13300
N136        N  0.43393638  0.08802142  0.53189606    -0.03000
C137        C  0.39941481  0.07354021  0.56240898    -0.00500
C138        C  0.41854636  0.05894597  0.60428447    -0.23300
C139        C  0.46576962  0.06519010  0.60045358    -0.23500
C140        C  0.47437009  0.08362741  0.55649091    -0.00600
H141        H  0.39979951  0.05043894  0.63655810     0.13200
H142        H  0.49067685  0.06188136  0.62878531     0.13300
O143        O  0.63204720  0.20348388  0.64035544    -0.78100
C144        C  0.58646605  0.27044204  0.77126780     0.83000
O145        O  0.76975395  0.27481164  0.68798140    -0.79200
O146        O  0.71883757  0.23386155  0.84748504    -0.80700
O147        O  0.65303294  0.09450569  0.76973597    -0.80500
O148        O  0.64402198  0.13056879  0.65761508    -0.79100
Zn149      Zn  0.65664737  0.23932120  0.69551261     1.55700
O150        O  0.64448178  0.14339898  0.83001363    -0.80500
Cd151      Cd  0.68306075  0.13575355  0.71784193     1.59700
Cd152      Cd  0.75991093  0.21794430  0.73246208     1.59600
O153        O  0.74640189  0.10893586  0.70034201    -0.80500
O154        O  0.69134160  0.20088056  0.73769629    -1.91000
Cd155      Cd  0.66591813  0.20771525  0.80394960     1.59900
O156        O  0.80126642  0.16307532  0.70762816    -0.80400
O157        O  0.60772698  0.25144741  0.80533230    -0.79100
C158        C  0.74022663  0.29928961  0.66612232     0.83400
C159        C  0.62801982  0.16103694  0.63051254     0.83100
O160        O  0.60138530  0.26718127  0.72888686    -0.78000
C161        C  0.64113932  0.10310192  0.81225883     0.83900
O162        O  0.69655631  0.29008046  0.66851386    -0.78100
C163        C  0.78907369  0.12203484  0.69688845     0.84000
C164        C  0.76249712  0.24175261  0.84004851     0.84400
O165        O  0.78173645  0.23615342  0.79951257    -0.80600
N166        N  0.06432130  0.45630740  0.50201286    -0.03000
C167        C  0.04211086  0.47173673  0.54182718    -0.00500
C168        C  0.00292212  0.49618764  0.52954881    -0.23300
C169        C  0.00349914  0.49988220  0.48151124    -0.23500
C170        C  0.04286271  0.47740715  0.46530379    -0.00600
H171        H  0.98182044  0.51711097  0.55291628     0.13200
H172        H  0.98292864  0.52401783  0.46193762     0.13300
O173        O  0.16106712  0.77192599  0.82900598    -0.78100
C174        C  0.05924169  0.75317325  0.72795581     0.83000
O175        O  0.11851300  0.60991453  0.84024551    -0.79200
O176        O  0.11925238  0.62629921  0.66826014    -0.80700
O177        O  0.25348156  0.72165269  0.69537732    -0.80500
O178        O  0.23457548  0.76770482  0.80241047    -0.79100
Zn179      Zn  0.12512518  0.71884120  0.80295162     1.55700
O180        O  0.19134513  0.71376532  0.64856882    -0.80500
Cd181      Cd  0.22965782  0.70749050  0.76294589     1.59700
Cd182      Cd  0.15994356  0.61839781  0.77982536     1.59600
O183        O  0.27407467  0.65803489  0.78996070    -0.80500
O184        O  0.16311357  0.68395612  0.75987068    -1.91000
Cd185      Cd  0.13840651  0.69060600  0.69411728     1.59900
O186        O  0.22686181  0.59623348  0.79362746    -0.80400
O187        O  0.08123039  0.73520881  0.69315069    -0.79100
C188        C  0.09694703  0.63911188  0.86581842     0.83400
C189        C  0.20273402  0.78785054  0.82617032     0.88700
O190        O  0.07162068  0.74665671  0.77026051    -0.78000
C191        C  0.23483691  0.72282624  0.65469174     0.83900
O192        O  0.09864753  0.68152490  0.85611992    -0.78100
C193        C  0.26726438  0.61530551  0.79714731     0.84000
C194        C  0.11992951  0.58564327  0.68459289     0.84400
O195        O  0.13313423  0.57695030  0.72638478    -0.80600
N196        N  0.44129192  0.45028849  0.79060342    -0.03000
C197        C  0.44803182  0.48912072  0.76464008    -0.00500
C198        C  0.46298736  0.47729880  0.71961210    -0.23300
C199        C  0.46880508  0.43090916  0.71883137    -0.23500
C200        C  0.45801304  0.41511392  0.76349609    -0.00600
H201        H  0.47594374  0.50031672  0.69251260     0.13200
H202        H  0.48612447  0.41197591  0.69087857     0.13300
N203        N  0.42113914  0.72989535  0.51518914    -0.03000
C204        C  0.38151084  0.70392395  0.52135751    -0.00500
C205        C  0.39415747  0.65890963  0.52894149    -0.23300
C206        C  0.44212498  0.65813431  0.53165268    -0.23500
C207        C  0.45807813  0.70252900  0.52512855    -0.00600
H208        H  0.37114317  0.63128015  0.54060220     0.13200
H209        H  0.46215184  0.62983935  0.54487397     0.13300
N210        N  0.78997065  0.49116655  0.50014898    -0.03000
C211        C  0.80107090  0.52394927  0.46730606    -0.00500
C212        C  0.81310052  0.56491529  0.48899450    -0.23300
C213        C  0.80833606  0.55841688  0.53621964    -0.23500
C214        C  0.79296166  0.51379410  0.54244704    -0.00600
H215        H  0.81902893  0.59768353  0.47206587     0.13200
H216        H  0.80972537  0.58514108  0.56286216     0.13300
O217        O  0.77072738  0.75713965  0.75915401    -0.78100
C218        C  0.64734664  0.80129145  0.82647044     0.83000
O219        O  0.71328651  0.62109562  0.84406425    -0.79200
O220        O  0.56362457  0.67850490  0.78514749    -0.80700
O221        O  0.65008402  0.70900392  0.64538059    -0.80500
O222        O  0.75961637  0.73458028  0.68469027    -0.79100
Zn223      Zn  0.72039281  0.72862390  0.80012790     1.55700
O224        O  0.59385037  0.73592435  0.69230720    -0.80500
Cd225      Cd  0.70188827  0.69070893  0.69316885     1.59700
Cd226      Cd  0.67201918  0.62935870  0.78512401     1.59600
O227        O  0.71932949  0.62425431  0.67574001    -0.80500
O228        O  0.67813671  0.69320094  0.76005416    -1.91000
Cd229      Cd  0.61552032  0.72294064  0.76005365     1.59900
O230        O  0.69340510  0.58060415  0.73532958    -0.80400
O231        O  0.61693494  0.78334224  0.79888600    -0.79100
C232        C  0.74402449  0.64701837  0.86350387     0.83400
C233        C  0.78136815  0.75873964  0.71538202     0.83100
O234        O  0.68707292  0.78257128  0.83199980    -0.78000
C235        C  0.60972146  0.72663271  0.65125926     0.83900
O236        O  0.75062576  0.68812026  0.84948224    -0.78100
C237        C  0.71220059  0.58515595  0.69456802     0.84000
C238        C  0.56460411  0.63683022  0.79823682     0.84400
O239        O  0.60276981  0.61489310  0.80133985    -0.80600
N240        N  0.43108264  0.08504276  0.48169224    -0.03000
C241        C  0.39116488  0.06994074  0.46011417    -0.00500
C242        C  0.40183595  0.03847633  0.42516253    -0.23300
C243        C  0.44952145  0.03712094  0.42186109    -0.23500
C244        C  0.46691186  0.06750763  0.45511685    -0.00600
H245        H  0.37808050  0.02485375  0.39882316     0.13200
H246        H  0.46878511  0.02218943  0.39263210     0.13300
O247        O  0.59760843  0.27253429  0.26238472    -0.78100
C248        C  0.61929006  0.16004480  0.36095015     0.83000
O249        O  0.76050206  0.28774173  0.29666791    -0.79200
O250        O  0.75910331  0.12265084  0.29814712    -0.80700
O251        O  0.64569552  0.13736545  0.17296090    -0.80500
O252        O  0.60154944  0.24316870  0.19022745    -0.79100
Zn253      Zn  0.64968841  0.24191753  0.29885812     1.55700
O254        O  0.66934736  0.09327594  0.23201700    -0.80500
Cd255      Cd  0.66155072  0.20381811  0.19266690     1.59700
Cd256      Cd  0.75498055  0.22967214  0.25396307     1.59600
O257        O  0.70872964  0.22905451  0.14210207    -0.80500
O258        O  0.68906390  0.20471638  0.25741094    -1.91000
Cd259      Cd  0.69139364  0.14071150  0.28220522     1.59900
O260        O  0.77173484  0.24738366  0.18488084    -0.80400
O261        O  0.64718831  0.13270637  0.33996888    -0.79100
C262        C  0.73122745  0.30770172  0.32406704     0.83400
C263        C  0.58213240  0.26960035  0.22042349     0.83100
O264        O  0.61787138  0.20214781  0.34924908    -0.78000
C265        C  0.65183041  0.09818388  0.19126883     0.83900
O266        O  0.68906504  0.29286502  0.32833876    -0.78100
C267        C  0.75057319  0.24468288  0.14548121     0.84000
C268        C  0.79960754  0.14052514  0.29061995     0.84400
O269        O  0.80427098  0.18098496  0.27416732    -0.80600
N270        N  0.42459495  0.77503716  0.49628181    -0.03000
C271        C  0.46548307  0.79736979  0.48666716    -0.00500
C272        C  0.45738592  0.84390638  0.48597635    -0.23300
C273        C  0.40932331  0.84892768  0.48867118    -0.23500
C274        C  0.38932945  0.80524780  0.48943218    -0.00600
H275        H  0.48206135  0.87037422  0.47487649     0.13200
H276        H  0.39150616  0.87986197  0.47876907     0.13300
N277        N  0.46674488  0.45322115  0.14616932    -0.03000
C278        C  0.49306643  0.48978225  0.13087425    -0.00500
C279        C  0.53381297  0.47580602  0.10878782    -0.23300
C280        C  0.53400360  0.42938982  0.11109589    -0.23500
C281        C  0.49363569  0.41602603  0.13496939    -0.00600
H282        H  0.56307267  0.49728709  0.09745674     0.13200
H283        H  0.56354925  0.40806343  0.10205032     0.13300
O284        O  0.68068019  0.61714023  0.31497315    -0.78100
C285        C  0.61180133  0.74173325  0.35728728     0.83000
O286        O  0.58391459  0.67782251  0.18306038    -0.79200
O287        O  0.64988867  0.82246010  0.23051985    -0.80700
O288        O  0.78912727  0.73626968  0.25946828    -0.80500
O289        O  0.75097932  0.62949595  0.28320224    -0.79100
Zn290      Zn  0.64020715  0.66685214  0.28670450     1.55700
O291        O  0.74631997  0.79317075  0.28917317    -0.80500
Cd292      Cd  0.74014586  0.68640420  0.24157208     1.59700
Cd293      Cd  0.64646497  0.71389133  0.18446443     1.59600
O294        O  0.75207172  0.66748759  0.17289300    -0.80500
O295        O  0.67550995  0.71015266  0.24822793    -1.91000
Cd296      Cd  0.67701047  0.77344657  0.27693813     1.59900
O297        O  0.68850243  0.68565780  0.13208471    -0.80400
O298        O  0.63716626  0.77370987  0.33924365    -0.79100
C299        C  0.56826737  0.64605322  0.20982421     0.83400
C300        C  0.72372274  0.60655136  0.31043532     0.83100
O301        O  0.61078183  0.70134074  0.33995577    -0.78000
C302        C  0.78594486  0.77573546  0.27862259     0.83900
O303        O  0.58794123  0.63716442  0.24886548    -0.78100
C304        C  0.72936840  0.66901006  0.13449710     0.84000
C305        C  0.63661537  0.81896164  0.18769797     0.84400
O306        O  0.63465648  0.78065426  0.16609643    -0.80600
O307        O  0.10060777  0.67907388  0.16890895    -0.78100
C308        C  0.07864983  0.76351444  0.29792546     0.83000
O309        O  0.24189850  0.77199701  0.19697118    -0.79200
O310        O  0.21347646  0.72537211  0.36212619    -0.80700
O311        O  0.14889103  0.58524121  0.28923269    -0.80500
O312        O  0.13633186  0.61262946  0.17753045    -0.79100
Zn313      Zn  0.13307784  0.72243069  0.21482740     1.55700
O314        O  0.13751624  0.63505585  0.34839940    -0.80500
Cd315      Cd  0.17802399  0.62505108  0.23586148     1.59700
Cd316      Cd  0.24247405  0.71782025  0.24414902     1.59600
O317        O  0.24579212  0.60388094  0.22056916    -0.80500
O318        O  0.17769687  0.69133591  0.25396850    -1.91000
Cd319      Cd  0.15851461  0.69833171  0.32202568     1.59900
O320        O  0.28892627  0.66850695  0.21903611    -0.80400
O321        O  0.10299272  0.74388460  0.32922383    -0.79100
C322        C  0.20737708  0.78898777  0.17531979     0.83400
C323        C  0.10605817  0.63721746  0.15721648     0.83100
O324        O  0.08514800  0.75576853  0.25410497    -0.78000
C325        C  0.13523354  0.59461086  0.33107787     0.83900
O326        O  0.16594506  0.77245017  0.17902202    -0.78100
C327        C  0.28462339  0.62524192  0.21343373     0.84000
C328        C  0.25287252  0.74359793  0.35056158     0.84400
O329        O  0.26713011  0.74358429  0.30766912    -0.80600
O330        O  0.28542508  0.26395534  0.25223372    -0.78100
C331        C  0.14948466  0.30510190  0.30917399     0.83000
O332        O  0.23851035  0.13226863  0.33070759    -0.79200
O333        O  0.08171974  0.16795822  0.28417569    -0.80700
O334        O  0.16361551  0.23049453  0.13942645    -0.80500
O335        O  0.27421121  0.24266782  0.17780006    -0.79100
Zn336      Zn  0.23025923  0.23906338  0.28932635     1.55700
O337        O  0.10019948  0.23064538  0.18639091    -0.80500
Cd338      Cd  0.21412616  0.20263806  0.18290060     1.59700
Cd339      Cd  0.19708714  0.13466439  0.27164071     1.59600
O340        O  0.22881448  0.13779767  0.15801169    -0.80500
O341        O  0.19201668  0.19905112  0.24978107    -1.91000
Cd342      Cd  0.12483737  0.21780640  0.25324352     1.59900
O343        O  0.22147459  0.09035719  0.21905620    -0.80400
O344        O  0.11907293  0.27880697  0.28994229    -0.79100
C345        C  0.25795730  0.16293000  0.35651636     0.83400
C346        C  0.29800611  0.26405742  0.20895122     0.83100
O347        O  0.19254193  0.29384590  0.31090540    -0.78000
C348        C  0.11998166  0.23704875  0.14639271     0.83900
O349        O  0.25605432  0.20526787  0.34598296    -0.78100
C350        C  0.23001014  0.09765913  0.17546324     0.84000
C351        C  0.09070150  0.12667007  0.29476301     0.84400
O352        O  0.13179648  0.11041050  0.29123493    -0.80600
C353        C  0.49059680  0.53679579  0.14991522    -0.05700
C354        C  0.48931869  0.54214664  0.19912239    -0.16800
C355        C  0.50795567  0.58165641  0.22051229     0.11500
C356        C  0.53006406  0.61552983  0.19205975    -0.05600
C357        C  0.52343810  0.61350600  0.14297377    -0.16900
C358        C  0.50401998  0.57453358  0.12162390     0.11500
S359        S  0.50504555  0.58534350  0.28397676    -0.31800
S360        S  0.50379933  0.57256423  0.05789428    -0.31800
H361        H  0.47347108  0.53432487  0.05373450     0.29500
H362        H  0.50442223  0.63355300  0.28541342     0.29500
H363        H  0.47789993  0.51379180  0.22116363     0.20100
H364        H  0.53805678  0.64006235  0.12040409     0.20100
C365        C  0.35202229  0.79525002  0.45378011    -0.05700
C366        C  0.30574516  0.78544082  0.46802882    -0.16800
C367        C  0.27169469  0.77053269  0.43551456     0.11500
C368        C  0.28415292  0.76482502  0.38716297    -0.05600
C369        C  0.32886215  0.78031116  0.37253229    -0.16900
C370        C  0.36198711  0.79708822  0.40459791     0.11500
S371        S  0.21315756  0.76088116  0.45819831    -0.31800
S372        S  0.41558851  0.82276772  0.38108634    -0.31800
H373        H  0.40692950  0.81514759  0.33290011     0.29500
H374        H  0.19187481  0.78566126  0.42195802     0.29500
H375        H  0.29578139  0.78986721  0.50466872     0.20100
H376        H  0.33820415  0.77936909  0.33546807     0.20100
C377        C  0.50475804  0.77682408  0.45857616    -0.05700
C378        C  0.55033419  0.79546112  0.46377113    -0.16800
C379        C  0.58724804  0.78306494  0.43307761     0.11500
C380        C  0.57823843  0.75192730  0.39595588    -0.05600
C381        C  0.53390398  0.73109778  0.39277003    -0.16900
C382        C  0.49713469  0.74273969  0.42307658     0.11500
S383        S  0.64556567  0.80621649  0.44209540    -0.31800
S384        S  0.44087422  0.71514703  0.41189110    -0.31800
H385        H  0.45517807  0.68354715  0.37719108     0.29500
H386        H  0.63616612  0.82716795  0.48594935     0.29500
H387        H  0.55664564  0.82060531  0.49131601     0.20100
H388        H  0.52730370  0.70700054  0.36433326     0.20100
C389        C  0.54339813  0.29990260  0.20439105    -0.05700
C390        C  0.52897125  0.29599290  0.15715571    -0.16800
C391        C  0.50491498  0.33114390  0.13500430     0.11500
C392        C  0.49468366  0.37170141  0.16027637    -0.05600
C393        C  0.50272733  0.37279945  0.20907008    -0.16900
C394        C  0.52566760  0.33682438  0.23178115     0.11500
S395        S  0.49468619  0.32487681  0.07246764    -0.31800
S396        S  0.53455650  0.34102917  0.29473871    -0.31800
H397        H  0.50349945  0.37727964  0.30305892     0.29500
H398        H  0.46547714  0.36283729  0.06750035     0.29500
H399        H  0.53983009  0.26701969  0.13586629     0.20100
H400        H  0.49641767  0.40410715  0.22848046     0.20100
C401        C  0.51109563  0.09314109  0.44375567    -0.05700
C402        C  0.50894946  0.14048806  0.43615807    -0.16800
C403        C  0.54579171  0.16480086  0.41388121     0.11500
C404        C  0.58542065  0.14066332  0.39672757    -0.05600
C405        C  0.58925915  0.09401763  0.40866016    -0.16900
C406        C  0.55269797  0.07014611  0.43179225     0.11500
S407        S  0.53943075  0.22580136  0.40559561    -0.31800
S408        S  0.55843431  0.00975531  0.44395920    -0.31800
H409        H  0.60264008  0.00421988  0.42236122     0.29500
H410        H  0.49782595  0.23087666  0.43213685     0.29500
H411        H  0.47678998  0.15793716  0.44439736     0.20100
H412        H  0.62001398  0.07538998  0.39756464     0.20100
C413        C  0.34985789  0.09920010  0.45267975    -0.05700
C414        C  0.35809819  0.14543808  0.44123637    -0.16800
C415        C  0.32579799  0.16994215  0.41471951     0.11500
C416        C  0.28474346  0.14731542  0.39818584    -0.05600
C417        C  0.27340469  0.10376719  0.41637195    -0.16900
C418        C  0.30523496  0.07961283  0.44345927     0.11500
S419        S  0.34184922  0.22778590  0.39899742    -0.31800
S420        S  0.28835002  0.02217379  0.46062700    -0.31800
H421        H  0.32753474  0.01321872  0.48834802     0.29500
H422        H  0.29788726  0.24533027  0.41221256     0.29500
H423        H  0.39165461  0.16140338  0.44917220     0.20100
H424        H  0.24091768  0.08674953  0.40629333     0.20100
C425        C  0.76584168  0.50341929  0.58601475    -0.05700
C426        C  0.79082586  0.50657779  0.62849049    -0.16800
C427        C  0.77091549  0.52679785  0.66880071     0.11500
C428        C  0.72538592  0.54466654  0.66637534    -0.05600
C429        C  0.69788210  0.53427478  0.62692056    -0.16900
C430        C  0.71737400  0.51305428  0.58703384     0.11500
S431        S  0.80762353  0.53554113  0.71953995    -0.31800
S432        S  0.68143479  0.50900210  0.53525418    -0.31800
H433        H  0.70347303  0.46997162  0.51711146     0.29500
H434        H  0.77042678  0.53751979  0.75241809     0.29500
H435        H  0.82800023  0.49960029  0.62837444     0.20100
H436        H  0.66260286  0.54745175  0.62503147     0.20100
C437        C  0.78546081  0.52509171  0.41749310    -0.05700
C438        C  0.73749743  0.51880387  0.40816973    -0.16800
C439        C  0.71663495  0.54025122  0.36954151     0.11500
C440        C  0.74410173  0.56980204  0.34032896    -0.05600
C441        C  0.79317927  0.56933598  0.34532574    -0.16900
C442        C  0.81400941  0.54738295  0.38344688     0.11500
S443        S  0.65477962  0.53005019  0.36095556    -0.31800
S444        S  0.87653629  0.55373517  0.39211084    -0.31800
H445        H  0.88748852  0.56955198  0.34645626     0.29500
H446        H  0.65769023  0.53226891  0.31139801     0.29500
H447        H  0.71537500  0.50057512  0.43326998     0.20100
H448        H  0.81519259  0.58996153  0.32217338     0.20100
C449        C  0.50270440  0.71844215  0.54721689    -0.05700
C450        C  0.50079445  0.75275349  0.58203212    -0.16800
C451        C  0.53836913  0.76078346  0.61253605     0.11500
C452        C  0.57807206  0.73222869  0.61019629    -0.05600
C453        C  0.58227557  0.70183879  0.57169833    -0.16900
C454        C  0.54517372  0.69503556  0.53996822     0.11500
S455        S  0.53273795  0.80707017  0.65452951    -0.31800
S456        S  0.55146540  0.65480557  0.49176254    -0.31800
H457        H  0.60038784  0.65029333  0.49514667     0.29500
H458        H  0.58122092  0.81673213  0.65665224     0.29500
H459        H  0.46890901  0.77195348  0.58716524     0.20100
H460        H  0.61300673  0.68067007  0.56854090     0.20100
C461        C  0.46117848  0.53497048  0.78427316    -0.05700
C462        C  0.48785873  0.53659296  0.82570196    -0.16800
C463        C  0.51655344  0.57436455  0.83627667     0.11500
C464        C  0.52027675  0.61063353  0.80391570    -0.05600
C465        C  0.48784518  0.61272539  0.76711997    -0.16900
C466        C  0.45796338  0.57546035  0.75714420     0.11500
S467        S  0.55057877  0.57293619  0.88948457    -0.31800
S468        S  0.42029720  0.58060356  0.70663094    -0.31800
H469        H  0.39260388  0.54136112  0.71519173     0.29500
H470        H  0.55843454  0.62061632  0.89194549     0.29500
H471        H  0.48946122  0.50709092  0.84829140     0.20100
H472        H  0.48934224  0.64122147  0.74276794     0.20100
C473        C  0.33839446  0.72029959  0.54541294    -0.05700
C474        C  0.34315640  0.75207293  0.58256165    -0.16800
C475        C  0.30720457  0.75798241  0.61593066     0.11500
C476        C  0.26590417  0.73065172  0.61312903    -0.05600
C477        C  0.25892286  0.70304116  0.57294832    -0.16900
C478        C  0.29478624  0.69746614  0.53917062     0.11500
S479        S  0.31701365  0.79938436  0.66242847    -0.31800
S480        S  0.28576516  0.65913480  0.48963830    -0.31800
H481        H  0.23810467  0.64918537  0.49885659     0.29500
H482        H  0.26920939  0.80848323  0.67025234     0.29500
H483        H  0.37617959  0.77025622  0.58752949     0.20100
H484        H  0.22698381  0.68267753  0.57011005     0.20100
C485        C  0.06964871  0.49837200  0.42535857    -0.05700
C486        C  0.11372401  0.51797930  0.43552820    -0.16800
C487        C  0.13719530  0.54694017  0.40402655     0.11500
C488        C  0.11614316  0.55759347  0.36093346    -0.05600
C489        C  0.07333703  0.53633148  0.34895514    -0.16900
C490        C  0.04955607  0.50717642  0.38076249     0.11500
S491        S  0.19301865  0.57098734  0.42188889    -0.31800
S492        S  0.99280704  0.48508807  0.36290440    -0.31800
H493        H  0.98583709  0.45305658  0.39910260     0.29500
H494        H  0.21199652  0.57508034  0.37607269     0.29500
H495        H  0.12913340  0.51316672  0.46957278     0.20100
H496        H  0.05704853  0.54453498  0.31572425     0.20100
C497        C  0.06794871  0.48724167  0.58466601    -0.05700
C498        C  0.11217462  0.50818663  0.57785839    -0.16800
C499        C  0.13117731  0.53847284  0.61114475     0.11500
C500        C  0.10608303  0.54748693  0.65318942    -0.05600
C501        C  0.06478513  0.52248679  0.66290894    -0.16900
C502        C  0.04534265  0.49261640  0.62912289     0.11500
S503        S  0.18624544  0.56666493  0.59661752    -0.31800
S504        S  0.99035109  0.46484630  0.64422730    -0.31800
H505        H  0.98820128  0.43492530  0.60539154     0.29500
H506        H  0.20111441  0.57292714  0.64340994     0.29500
H507        H  0.13095471  0.50349750  0.54505495     0.20100
H508        H  0.04599135  0.52845310  0.69575842     0.20100
C509        C  0.54477632  0.29926734  0.78025094    -0.05700
C510        C  0.54803325  0.33499817  0.81339352    -0.16800
C511        C  0.51635785  0.37153604  0.81307300     0.11500
C512        C  0.47972980  0.37169833  0.77965623    -0.05600
C513        C  0.47305449  0.33269927  0.75098704    -0.16900
C514        C  0.50534345  0.29684996  0.75052059     0.11500
S515        S  0.52755187  0.42009660  0.85106584    -0.31800
S516        S  0.49749071  0.24942531  0.70986426    -0.31800
H517        H  0.45468677  0.26357238  0.69092523     0.29500
H518        H  0.56007593  0.39878361  0.88041609     0.29500
H519        H  0.57822772  0.33668992  0.83625431     0.20100
H520        H  0.44478598  0.33244714  0.72573429     0.20100
C521        C  0.59919212  0.14676057  0.58983540    -0.05700
C522        C  0.56171973  0.17497776  0.57810739    -0.16800
C523        C  0.52106379  0.15644509  0.55823182     0.11500
C524        C  0.51863932  0.10893808  0.54849651    -0.05600
C525        C  0.55964274  0.08316432  0.55116096    -0.16900
C526        C  0.60019389  0.10171433  0.57137305     0.11500
S527        S  0.47072501  0.19300537  0.55724684    -0.31800
S528        S  0.65000826  0.06486262  0.57690808    -0.31800
H529        H  0.68334569  0.10086264  0.57935194     0.29500
H530        H  0.44979949  0.17206738  0.51816488     0.29500
H531        H  0.56108810  0.21014526  0.59056048     0.20100
H532        H  0.55820924  0.04681672  0.54322274     0.20100
C533        C  0.79163187  0.41373299  0.41217459    -0.05700
C534        C  0.74574781  0.39796567  0.42167333    -0.16800
C535        C  0.72361582  0.36512866  0.39269509     0.11500
C536        C  0.74753561  0.34853179  0.35197682    -0.05600
C537        C  0.79021790  0.37005494  0.33882750    -0.16900
C538        C  0.81223683  0.40251102  0.36804493     0.11500
S539        S  0.66736761  0.34197386  0.41184328    -0.31800
S540        S  0.86812274  0.42561336  0.34817130    -0.31800
H541        H  0.87387333  0.45771470  0.38462739     0.29500
H542        H  0.65832622  0.37450219  0.44749472     0.29500
H543        H  0.72906735  0.40756202  0.45456614     0.20100
H544        H  0.80793825  0.35996840  0.30648187     0.20100
C545        C  0.79865532  0.40193528  0.57180023    -0.05700
C546        C  0.75189833  0.38725410  0.56671006    -0.16800
C547        C  0.73077428  0.35583466  0.59802171     0.11500
C548        C  0.75721540  0.33825913  0.63600731    -0.05600
C549        C  0.80247986  0.35652751  0.64353913    -0.16900
C550        C  0.82313223  0.38825997  0.61239721     0.11500
S551        S  0.67192054  0.33560340  0.58499015    -0.31800
S552        S  0.88182829  0.40805797  0.62540953    -0.31800
H553        H  0.88243537  0.44602940  0.59513490     0.29500
H554        H  0.66108650  0.36948219  0.55187598     0.29500
H555        H  0.73306863  0.39710540  0.53565013     0.20100
H556        H  0.82270208  0.34495302  0.67323205     0.20100
C557        C  0.27203162  0.12992096  0.60665195    -0.05700
C558        C  0.27553753  0.08189065  0.60369593    -0.16800
C559        C  0.31468557  0.06142254  0.58291669     0.11500
C560        C  0.35043599  0.08940515  0.56318386    -0.05600
C561        C  0.34278923  0.13650256  0.55845508    -0.16900
C562        C  0.30351944  0.15713890  0.57935433     0.11500
S563        S  0.32187150  0.00011881  0.58769752    -0.31800
S564        S  0.29610813  0.21816091  0.57294118    -0.31800
H565        H  0.33411634  0.22587113  0.54175593     0.29500
H566        H  0.27756155  0.99003381  0.60769107     0.29500
H567        H  0.25031392  0.06030295  0.62218613     0.20100
H568        H  0.36985240  0.15780239  0.54252356     0.20100
C569        C  0.10201551  0.40071986  0.41006319    -0.05700
C570        C  0.07136289  0.38845907  0.37346995    -0.16800
C571        C  0.08687361  0.36202152  0.33516655     0.11500
C572        C  0.13422786  0.34785430  0.33359577    -0.05600
C573        C  0.16633589  0.37058955  0.36323941    -0.16900
C574        C  0.15067402  0.39779480  0.40079731     0.11500
S575        S  0.04356294  0.34431771  0.29261534    -0.31800
S576        S  0.19431568  0.41901463  0.44108334    -0.31800
H577        H  0.16316478  0.44392789  0.46914363     0.29500
H578        H  0.07528359  0.34494214  0.25421639     0.29500
H579        H  0.03394798  0.39172762  0.37895790     0.20100
H580        H  0.20344414  0.36338798  0.36055938     0.20100
C581        C  0.08590898  0.38148139  0.58314145    -0.05700
C582        C  0.05242921  0.36013225  0.61261765    -0.16800
C583        C  0.06587412  0.33414934  0.65139330     0.11500
C584        C  0.11433808  0.32877652  0.66068145    -0.05600
C585        C  0.14670190  0.35714796  0.63647501    -0.16900
C586        C  0.13293436  0.38360161  0.59803556     0.11500
S587        S  0.01952149  0.30472771  0.68321036    -0.31800
S588        S  0.17715858  0.41298903  0.56332919    -0.31800
H589        H  0.21518711  0.40525632  0.59332760     0.29500
H590        H  0.03655318  0.31834162  0.72766350     0.29500
H591        H  0.01615985  0.35821033  0.60153299     0.20100
H592        H  0.18358657  0.35544528  0.64488798     0.20100
C593        C  0.38789341  0.37069280  0.15825169    -0.05700
C594        C  0.38197238  0.33078123  0.13078804    -0.16800
C595        C  0.35828461  0.29214201  0.14841959     0.11500
C596        C  0.33824390  0.29380218  0.19421355    -0.05600
C597        C  0.35048730  0.33067677  0.22384839    -0.16900
C598        C  0.37492560  0.36897889  0.20660307     0.11500
S599        S  0.35256759  0.24322500  0.10967727    -0.31800
S600        S  0.38021058  0.41646065  0.24687960    -0.31800
H601        H  0.42388836  0.43177137  0.23014376     0.29500
H602        H  0.35218948  0.21089806  0.14633987     0.29500
H603        H  0.39186162  0.33119045  0.09381026     0.20100
H604        H  0.33692388  0.33198134  0.25968801     0.20100
C605        C  0.38213343  0.53275821  0.15130440    -0.05700
C606        C  0.37436883  0.53204961  0.20030883    -0.16800
C607        C  0.34502472  0.56399047  0.22254564     0.11500
C608        C  0.32486690  0.59875407  0.19560301    -0.05600
C609        C  0.33852625  0.60395105  0.14831321    -0.16900
C610        C  0.36682623  0.57126907  0.12579640     0.11500
S611        S  0.33100246  0.55860068  0.28456414    -0.31800
S612        S  0.37946539  0.57675622  0.06348899    -0.31800
H613        H  0.35850934  0.61958558  0.05734892     0.29500
H614        H  0.36255311  0.52328430  0.29396067     0.29500
H615        H  0.38777071  0.50429004  0.22050239     0.20100
H616        H  0.32371444  0.63143840  0.12806227     0.20100
C617        C  0.38705134  0.36547640  0.83221256    -0.05700
C618        C  0.36126500  0.37233228  0.79098869    -0.16800
C619        C  0.33256620  0.33805972  0.77167210     0.11500
C620        C  0.32752205  0.29569679  0.79541902    -0.05600
C621        C  0.35613142  0.28742818  0.83463128    -0.16900
C622        C  0.38638520  0.32148240  0.85264780     0.11500
S623        S  0.29920792  0.35196852  0.71977196    -0.31800
S624        S  0.42166595  0.30736978  0.90282854    -0.31800
H625        H  0.45585597  0.34193129  0.89560719     0.29500
H626        H  0.32500940  0.39157319  0.70698971     0.29500
H627        H  0.36098087  0.40579672  0.77523762     0.20100
H628        H  0.35381907  0.25467549  0.85236915     0.20100
C629        C  0.37249831  0.52095978  0.84026432    -0.05700
C630        C  0.34666329  0.51334873  0.79892210    -0.16800
C631        C  0.31520923  0.54547402  0.78231752     0.11500
C632        C  0.30719472  0.58583742  0.80847457    -0.05600
C633        C  0.33437902  0.59504033  0.84853654    -0.16900
C634        C  0.36703738  0.56320274  0.86464062     0.11500
S635        S  0.28581515  0.53273350  0.72753134    -0.31800
S636        S  0.39877197  0.57792479  0.91755513    -0.31800
H637        H  0.43547743  0.54694791  0.91114091     0.29500
H638        H  0.28263434  0.57862142  0.71308714     0.29500
H639        H  0.34990096  0.48153135  0.77970743     0.20100
H640        H  0.32864556  0.62621156  0.86859655     0.20100
C641        C  0.77683806  0.25900737  0.10276473    -0.05700
C642        C  0.81201427  0.23006679  0.08590158    -0.16800
C643        C  0.84880423  0.24689465  0.05744798     0.11500
C644        C  0.85164403  0.29430403  0.04718621    -0.05600
C645        C  0.81189652  0.32096270  0.05704430    -0.16900
C646        C  0.77483663  0.30401417  0.08520958     0.11500
S647        S  0.89385541  0.20717354  0.04158256    -0.31800
S648        S  0.73004219  0.34347221  0.10339772    -0.31800
H649        H  0.69476283  0.31010524  0.11099621     0.29500
H650        H  0.90647351  0.22947912  0.99972979     0.29500
H651        H  0.81295237  0.19497783  0.09815561     0.20100
H652        H  0.81295460  0.35718091  0.04877498     0.20100
C653        C  0.01844269  0.29874377  0.06023148    -0.05700
C654        C  0.01668353  0.25119113  0.06714849    -0.16800
C655        C  0.05226764  0.22885369  0.09102684     0.11500
C656        C  0.09092612  0.25443960  0.10803361    -0.05600
C657        C  0.09561182  0.30084892  0.09616675    -0.16900
C658        C  0.05968237  0.32334723  0.07268478     0.11500
S659        S  0.04429009  0.16854372  0.10265898    -0.31800
S660        S  0.06635831  0.38435044  0.06450807    -0.31800
H661        H  0.02926757  0.38943979  0.03279058     0.29500
H662        H  0.09215336  0.15936513  0.10821098     0.29500
H663        H  0.98554307  0.23190243  0.05786467     0.20100
H664        H  0.12535234  0.32065423  0.10908218     0.20100
C665        C  0.84230748  0.57793077  0.95228666    -0.05700
C666        C  0.84851494  0.62481118  0.94286060    -0.16800
C667        C  0.81463488  0.64988877  0.91915777     0.11500
C668        C  0.77448121  0.62699459  0.90071868    -0.05600
C669        C  0.76665489  0.58082781  0.91351067    -0.16900
C670        C  0.79953399  0.55646507  0.93942818     0.11500
S671        S  0.82630447  0.71037321  0.91252233    -0.31800
S672        S  0.78574880  0.49736371  0.95284189    -0.31800
H673        H  0.81602875  0.49399574  0.99147919     0.29500
H674        H  0.78031133  0.72274827  0.92523923     0.29500
H675        H  0.88103669  0.64185269  0.95179772     0.20100
H676        H  0.73546939  0.56267209  0.90163454     0.20100
C677        C  0.00147564  0.57855767  0.96609119    -0.05700
C678        C  0.99419263  0.62351040  0.95098194    -0.16800
C679        C  0.02627643  0.64596103  0.92098732     0.11500
C680        C  0.06737165  0.62288184  0.90610861    -0.05600
C681        C  0.07772277  0.58072911  0.92703072    -0.16900
C682        C  0.04560759  0.55876589  0.95736854     0.11500
S683        S  0.01033615  0.70120007  0.89782106    -0.31800
S684        S  0.06193842  0.50445126  0.98155598    -0.31800
H685        H  0.02323135  0.49907339  0.01195047     0.29500
H686        H  0.97158251  0.70885641  0.92784797     0.29500
H687        H  0.96097999  0.63930468  0.95843876     0.20100
H688        H  0.11009844  0.56365793  0.91793997     0.20100
C689        C  0.04451275  0.79899699  0.31220630    -0.05700
C690        C  0.01271452  0.79107980  0.34959629    -0.16800
C691        C  0.98233896  0.82558346  0.36558130     0.11500
C692        C  0.98456526  0.86957675  0.34466620    -0.05600
C693        C  0.01602957  0.87677390  0.30700008    -0.16900
C694        C  0.04543618  0.84231122  0.29030309     0.11500
S695        S  0.94255490  0.81153191  0.41342864    -0.31800
S696        S  0.08706914  0.85590710  0.24374932    -0.31800
H697        H  0.07089684  0.90000375  0.23351707     0.29500
H698        H  0.91075423  0.84688008  0.40561607     0.29500
H699        H  0.01167714  0.75791173  0.36657104     0.20100
H700        H  0.01933290  0.91037723  0.29181259     0.20100
C701        C  0.05266400  0.09496607  0.30914810    -0.05700
C702        C  0.02515048  0.10392086  0.34946729    -0.16800
C703        C  0.99451069  0.07014595  0.36803899     0.11500
C704        C  0.99223844  0.02630206  0.34639791    -0.05600
C705        C  0.01877332  0.01871212  0.30514014    -0.16900
C706        C  0.04742798  0.05265109  0.28562850     0.11500
S707        S  0.96019677  0.08475561  0.41960020    -0.31800
S708        S  0.07709419  0.03951033  0.23068063    -0.31800
H709        H  0.07724436  0.08460576  0.21337312     0.29500
H710        H  0.92383525  0.05265163  0.41165868     0.29500
H711        H  0.02872384  0.13664525  0.36742542     0.20100
H712        H  0.01780702  0.98578510  0.28776026     0.20100
C713        C  0.88365147  0.85950430  0.66856700    -0.05700
C714        C  0.84975654  0.86981521  0.70321172    -0.16800
C715        C  0.81639652  0.83782007  0.71823669     0.11500
C716        C  0.81714534  0.79280276  0.69995797    -0.05600
C717        C  0.85159321  0.78140346  0.66618672    -0.16900
C718        C  0.88505436  0.81411326  0.65052067     0.11500
S719        S  0.77148851  0.85828622  0.75813811    -0.31800
S720        S  0.92857752  0.79526749  0.60831600    -0.31800
H721        H  0.96167530  0.83041290  0.61658344     0.29500
H722        H  0.73419859  0.83533072  0.73538530     0.29500
H723        H  0.84727752  0.90420361  0.71732874     0.20100
H724        H  0.85259156  0.74682150  0.65214542     0.20100
C725        C  0.88337169  0.01297650  0.65588821    -0.05700
C726        C  0.90112130  0.05813780  0.65855088    -0.16800
C727        C  0.87197856  0.09506377  0.67089614     0.11500
C728        C  0.82354466  0.08688090  0.68037363    -0.05600
C729        C  0.80577068  0.04213746  0.67323324    -0.16900
C730        C  0.83433301  0.00602952  0.65959606     0.11500
S731        S  0.89881055  0.15121347  0.67318617    -0.31800
S732        S  0.80623599  0.95242115  0.64317279    -0.31800
H733        H  0.76027518  0.96875386  0.63927169     0.29500
H734        H  0.86430928  0.17114345  0.64506032     0.29500
H735        H  0.93792173  0.06475836  0.65107143     0.20100
H736        H  0.76870791  0.03486571  0.67800198     0.20100
C737        C  0.23992456  0.05324631  0.85368364    -0.05700
C738        C  0.27763300  0.02438000  0.84302715    -0.16800
C739        C  0.29172057  0.99092754  0.87539963     0.11500
C740        C  0.26838029  0.98718233  0.91967855    -0.05600
C741        C  0.22880745  0.01441688  0.92778440    -0.16900
C742        C  0.21390694  0.04618971  0.89532179     0.11500
S743        S  0.33965155  0.95457186  0.85842988    -0.31800
S744        S  0.16117698  0.07712584  0.90958203    -0.31800
H745        H  0.14556471  0.08038493  0.86279700     0.29500
H746        H  0.32652808  0.91795586  0.88805210     0.29500
H747        H  0.29688802  0.02873327  0.81016365     0.20100
H748        H  0.20874897  0.01184966  0.95973107     0.20100
C749        C  0.24019080  0.05883182  0.14314058    -0.05700
C750        C  0.26906009  0.02272292  0.15725888    -0.16800
C751        C  0.28330713  0.98854194  0.12493220     0.11500
C752        C  0.26834818  0.99048755  0.07752803    -0.05600
C753        C  0.23837087  0.02578530  0.06467174    -0.16900
C754        C  0.22321326  0.05874355  0.09660358     0.11500
S755        S  0.32143363  0.94459450  0.14606725    -0.31800
S756        S  0.18128057  0.09925133  0.07525021    -0.31800
H757        H  0.15509164  0.10045984  0.11758673     0.29500
H758        H  0.31486851  0.91351372  0.10865879     0.29500
H759        H  0.28186448  0.02197955  0.19309124     0.20100
H760        H  0.22736405  0.02887393  0.02902147     0.20100
C761        C  0.59095895  0.90385988  0.91942989    -0.05700
C762        C  0.63789051  0.89110442  0.92505520    -0.16800
C763        C  0.65986035  0.86144534  0.89267040     0.11500
C764        C  0.63407513  0.84343429  0.85390811    -0.05600
C765        C  0.59034500  0.86291385  0.84443092    -0.16900
C766        C  0.56851826  0.89244308  0.87652533     0.11500
S767        S  0.71921920  0.84566100  0.90521145    -0.31800
S768        S  0.50956855  0.90929558  0.86261137    -0.31800
H769        H  0.49958368  0.93282441  0.90450270     0.29500
H770        H  0.73456987  0.85117670  0.85825422     0.29500
H771        H  0.65600318  0.90036329  0.95725869     0.20100
H772        H  0.57087662  0.85216973  0.81353939     0.20100
C773        C  0.58209940  0.90770016  0.08561841    -0.05700
C774        C  0.63046212  0.89925547  0.08578144    -0.16800
C775        C  0.65099608  0.87580934  0.12311962     0.11500
C776        C  0.62267070  0.85964838  0.16082004    -0.05600
C777        C  0.57576097  0.87311923  0.16364059    -0.16900
C778        C  0.55531129  0.89741267  0.12677857     0.11500
S779        S  0.71246203  0.86271827  0.11823319    -0.31800
S780        S  0.49357886  0.90971565  0.13214470    -0.31800
H781        H  0.49222512  0.94195981  0.09555213     0.29500
H782        H  0.71942354  0.85677500  0.16687575     0.29500
H783        H  0.65149476  0.90651128  0.05464213     0.20100
H784        H  0.55379683  0.86106854  0.19259295     0.20100
C785        C  0.86591172  0.29678948  0.93401320    -0.05700
C786        C  0.82085650  0.31571652  0.93403119    -0.16800
C787        C  0.78446736  0.29614811  0.90717707     0.11500
C788        C  0.79333925  0.25704955  0.87903129    -0.05600
C789        C  0.83710406  0.23625118  0.88190039    -0.16900
C790        C  0.87360882  0.25594757  0.90804665     0.11500
S791        S  0.72989220  0.32612655  0.90501946    -0.31800
S792        S  0.93137869  0.23258580  0.90052114    -0.31800
H793        H  0.91783102  0.19115576  0.87860221     0.29500
H794        H  0.70244318  0.28685442  0.91495418     0.29500
H795        H  0.81499102  0.34789771  0.95226048     0.20100
H796        H  0.84390415  0.20647220  0.86003644     0.20100
C797        C  0.02819394  0.30955019  0.95093872    -0.05700
C798        C  0.02875705  0.26149691  0.95322771    -0.16800
C799        C  0.06369644  0.23649379  0.93013771     0.11500
C800        C  0.09974160  0.25992498  0.90546103    -0.05600
C801        C  0.10399391  0.30752937  0.91040535    -0.16900
C802        C  0.06889567  0.33265240  0.93349710     0.11500
S803        S  0.05768381  0.17496547  0.92886979    -0.31800
S804        S  0.07525522  0.39414200  0.93740694    -0.31800
H805        H  0.12157285  0.39718752  0.91994672     0.29500
H806        H  0.10526821  0.16664992  0.91918399     0.29500
H807        H  0.99951008  0.24300095  0.96905232     0.20100
H808        H  0.13245787  0.32534189  0.89229386     0.20100
C809        C  0.75318690  0.65136946  0.09227638    -0.05700
C810        C  0.79428547  0.67492568  0.07900291    -0.16800
C811        C  0.83302087  0.65134629  0.06159204     0.11500
C812        C  0.82960252  0.60325010  0.05535816    -0.05600
C813        C  0.78527053  0.58173842  0.05946680    -0.16900
C814        C  0.74708617  0.60519455  0.07864503     0.11500
S815        S  0.88780398  0.68299736  0.06029068    -0.31800
S816        S  0.69496692  0.57235154  0.09352427    -0.31800
H817        H  0.66450235  0.60971970  0.09326508     0.29500
H818        H  0.90771440  0.65820941  0.02322716     0.29500
H819        H  0.79885921  0.71051675  0.08944268     0.20100
H820        H  0.78227690  0.54491982  0.05499708     0.20100
C821        C  0.99394630  0.57414606  0.08015028    -0.05700
C822        C  0.00661733  0.61980432  0.07043339    -0.16800
C823        C  0.04646779  0.64044608  0.09074902     0.11500
C824        C  0.07355901  0.61514043  0.12271607    -0.05600
C825        C  0.06460701  0.56780185  0.12677123    -0.16900
C826        C  0.02546144  0.54707155  0.10573365     0.11500
S827        S  0.06087521  0.69935680  0.07679597    -0.31800
S828        S  0.01487930  0.48701179  0.11759247    -0.31800
H829        H  0.98117925  0.47944114  0.08239933     0.29500
H830        H  0.02916057  0.70360431  0.03937800     0.29500
H831        H  0.98308915  0.64060693  0.05044638     0.20100
H832        H  0.08594055  0.54726807  0.14965459     0.20100
C833        C  0.02026817  0.78525817  0.72119613    -0.05700
C834        C  0.98162265  0.78181828  0.75230604    -0.16800
C835        C  0.95217773  0.81915561  0.76069639     0.11500
C836        C  0.96168495  0.86110088  0.73765709    -0.05600
C837        C  0.99836224  0.86342050  0.70420782    -0.16900
C838        C  0.02685281  0.82579071  0.69494731     0.11500
S839        S  0.90411949  0.81358029  0.80251223    -0.31800
S840        S  0.07439100  0.83344084  0.65334761    -0.31800
H841        H  0.06465919  0.79203625  0.62947444     0.29500
H842        H  0.91179065  0.76772609  0.81488003     0.29500
H843        H  0.97657551  0.75072532  0.77251712     0.20100
H844        H  0.00633954  0.89543746  0.68655771     0.20100
C845        C  0.03425175  0.08804075  0.72356146    -0.05700
C846        C  0.99374399  0.09649026  0.75075397    -0.16800
C847        C  0.95836235  0.06306152  0.75587843     0.11500
C848        C  0.96371803  0.01975967  0.73407241    -0.05600
C849        C  0.00216482  0.01295544  0.70355692    -0.16900
C850        C  0.03652761  0.04695934  0.69694275     0.11500
S851        S  0.90815133  0.07692865  0.79217819    -0.31800
S852        S  0.08270865  0.03516698  0.65479536    -0.31800
H853        H  0.08891214  0.08109102  0.64087160     0.29500
H854        H  0.87731179  0.04505368  0.77093059     0.29500
H855        H  0.99070508  0.12828664  0.77039263     0.20100
H856        H  0.00676675  0.98018023  0.68620915     0.20100
C857        C  0.90078729  0.87155375  0.27958246    -0.05700
C858        C  0.86848709  0.87108416  0.31729933    -0.16800
C859        C  0.83310562  0.83761587  0.32079380     0.11500
C860        C  0.82936594  0.80352875  0.28546695    -0.05600
C861        C  0.86572816  0.79992536  0.25180475    -0.16900
C862        C  0.90156973  0.83321229  0.24873056     0.11500
S863        S  0.79294938  0.84150209  0.37018122    -0.31800
S864        S  0.94512072  0.82601365  0.20263849    -0.31800
H865        H  0.97668755  0.86001249  0.21831788     0.29500
H866        H  0.78420675  0.79402061  0.37309942     0.29500
H867        H  0.86873001  0.89843510  0.34285046     0.20100
H868        H  0.86450442  0.77287498  0.22546910     0.20100
C869        C  0.90149561  0.03465412  0.29290455    -0.05700
C870        C  0.91214338  0.07521444  0.26809609    -0.16800
C871        C  0.88235988  0.11323049  0.27005922     0.11500
C872        C  0.84118366  0.11098209  0.29844488    -0.05600
C873        C  0.83516259  0.07356475  0.32896830    -0.16900
C874        C  0.86411320  0.03523341  0.32612511     0.11500
S875        S  0.89501829  0.16160885  0.23220831    -0.31800
S876        S  0.84888538  0.98611331  0.36161465    -0.31800
H877        H  0.80623230  0.00208617  0.38027208     0.29500
H878        H  0.93606593  0.14453310  0.21099144     0.29500
H879        H  0.94146714  0.07523937  0.24349522     0.20100
H880        H  0.80495963  0.07269861  0.35242696     0.20100
C881        C  0.58068478  0.01451430  0.91637797    -0.05700
C882        C  0.62962065  0.01523344  0.90957149    -0.16800
C883        C  0.65057741  0.04076261  0.87292423     0.11500
C884        C  0.62207525  0.06560053  0.84202725    -0.05600
C885        C  0.57337687  0.05902728  0.84429065    -0.16900
C886        C  0.55231102  0.03353305  0.88072954     0.11500
S887        S  0.71374552  0.04431187  0.87043142    -0.31800
S888        S  0.48882954  0.03242121  0.88289573    -0.31800
H889        H  0.48278179  0.00613354  0.92385058     0.29500
H890        H  0.71715123  0.05285933  0.82174584     0.29500
H891        H  0.65191903  0.00030349  0.93583057     0.20100
H892        H  0.55134902  0.07690662  0.81972088     0.20100
C893        C  0.60153302  0.00977371  0.08525478    -0.05700
C894        C  0.57523010  0.01452856  0.12720494    -0.16800
C895        C  0.59331705  0.03836964  0.16604404     0.11500
C896        C  0.63873794  0.05781812  0.16293724    -0.05600
C897        C  0.66737036  0.04733689  0.12400790    -0.16900
C898        C  0.64943826  0.02309753  0.08528061     0.11500
S899        S  0.55420338  0.04937584  0.21506417    -0.31800
S900        S  0.68671057  0.01878988  0.03382653    -0.31800
H901        H  0.66788611  0.97669238  0.01853214     0.29500
H902        H  0.58953391  0.05439760  0.24899383     0.29500
H903        H  0.53830390  0.00526744  0.12743886     0.20100
H904        H  0.70243290  0.06216471  0.12166456     0.20100
C905        C  0.21282856  0.83074478  0.85187017    -0.05700
C906        C  0.18370653  0.86813273  0.84350214    -0.16800
C907        C  0.17936202  0.90359234  0.87676061     0.11500
C908        C  0.20399008  0.90102399  0.91956144    -0.05600
C909        C  0.23744964  0.86663580  0.92490744    -0.16900
C910        C  0.24221032  0.83159992  0.89150062     0.11500
S911        S  0.13964412  0.94993212  0.86603545    -0.31800
S912        S  0.28051601  0.78518592  0.90524691    -0.31800
H913        H  0.29928511  0.78193440  0.85932880     0.29500
H914        H  0.12886566  0.93777105  0.81923122     0.29500
H915        H  0.16158944  0.86761107  0.81264063     0.20100
H916        H  0.25706685  0.86444505  0.95719009     0.20100
C917        C  0.21410218  0.82962018  0.14559588    -0.05700
C918        C  0.18830864  0.86864421  0.15727999    -0.16800
C919        C  0.18351274  0.90448839  0.12536174     0.11500
C920        C  0.20553681  0.90150317  0.08065765    -0.05600
C921        C  0.23608971  0.86495840  0.07149719    -0.16900
C922        C  0.24000580  0.82865018  0.10307668     0.11500
S923        S  0.14597724  0.95104482  0.14262843    -0.31800
S924        S  0.27473806  0.78040023  0.08488036    -0.31800
H925        H  0.24461682  0.74641025  0.10370062     0.29500
H926        H  0.15979000  0.98138760  0.10674405     0.29500
H927        H  0.16982547  0.87013204  0.19071156     0.20100
H928        H  0.25348163  0.86213581  0.03760250     0.20100
loop_ 
_geom_bond_atom_site_label_1 
_geom_bond_atom_site_label_2 
_geom_bond_distance 
_geom_bond_site_symmetry_2 
_ccdc_geom_bond_type 
N1            C5   1.360   1_554  A
N1            C2   1.356       .  A
N1           N50   1.425   1_554  S
C2            C3   1.384       .  A
C2          C920   1.483       .  S
C3            C4   1.372   1_554  A
C3            H6   1.083       .  S
C4            C5   1.383       .  A
C4            H7   1.082       .  S
C5          C908   1.485       .  S
N8           C12   1.374   1_564  A
N8            C9   1.368   1_565  A
N8           N43   1.432       .  S
C9           C10   1.376       .  A
C9          C893   1.478       .  S
C10          C11   1.355   1_554  A
C10          H13   1.083       .  S
C11          C12   1.384       .  A
C11          H14   1.083       .  S
C12         C881   1.488       .  S
N15          C19   1.365       .  A
N15          C16   1.367       .  A
N15          N64   1.429       .  S
C16          C17   1.380       .  A
C16         C869   1.498   1_565  S
C17          C18   1.368       .  A
C17          H20   1.083   1_565  S
C18          C19   1.385       .  A
C18          H21   1.082       .  S
C19         C857   1.491       .  S
N22          C26   1.364       .  A
N22          C23   1.360       .  A
N22          N57   1.429       .  S
C23          C24   1.385       .  A
C23         C848   1.482   1_565  S
C24          C25   1.370       .  A
C24          H27   1.083       .  S
C25          C26   1.381       .  A
C25          H28   1.082       .  S
C26         C836   1.489       .  S
N29          C33   1.363       .  A
N29          C30   1.369       .  A
N29          N71   1.428   1_554  S
C30          C31   1.383       .  A
C30         C821   1.484       .  S
C31          C32   1.360       .  A
C31          H34   1.082       .  S
C32          C33   1.379       .  A
C32          H35   1.083       .  S
C33         C812   1.475       .  S
N36          C40   1.367       .  A
N36          C37   1.372       .  A
N36          N78   1.431   1_556  S
C37          C38   1.386       .  A
C37         C797   1.498   1_655  S
C38          C39   1.363       .  A
C38          H41   1.081       .  S
C39          C40   1.378       .  A
C39          H42   1.083       .  S
C40         C785   1.485       .  S
N43          C47   1.372       .  A
N43          C44   1.369   1_554  A
C44          C45   1.382       .  A
C44         C761   1.485       .  S
C45          C46   1.358   1_556  A
C45          H48   1.083       .  S
C46          C47   1.380       .  A
C46          H49   1.083       .  S
C47         C773   1.489       .  S
N50          C54   1.363   1_556  A
N50          C51   1.363       .  A
C51          C52   1.386       .  A
C51         C740   1.499       .  S
C52          C53   1.378   1_556  A
C52          H55   1.082       .  S
C53          C54   1.382       .  A
C53          H56   1.083       .  S
C54         C752   1.494       .  S
N57          C61   1.362       .  A
N57          C58   1.366       .  A
C58          C59   1.385       .  A
C58         C725   1.494   1_565  S
C59          C60   1.379       .  A
C59          H62   1.083       .  S
C60          C61   1.383       .  A
C60          H63   1.082       .  S
C61         C713   1.497       .  S
N64          C68   1.367       .  A
N64          C65   1.362       .  A
C65          C66   1.382       .  A
C65         C704   1.490   1_565  S
C66          C67   1.375       .  A
C66          H69   1.082   1_655  S
C67          C68   1.385       .  A
C67          H70   1.083       .  S
C68         C692   1.494       .  S
N71          C75   1.364       .  A
N71          C72   1.366       .  A
C72          C73   1.380       .  A
C72         C665   1.490       .  S
C73          C74   1.366       .  A
C73          H76   1.082       .  S
C74          C75   1.384       .  A
C74          H77   1.083       .  S
C75         C677   1.485   1_655  S
N78          C82   1.369       .  A
N78          C79   1.370       .  A
C79          C80   1.383       .  A
C79         C644   1.491       .  S
C80          C81   1.359       .  A
C80          H83   1.083       .  S
C81          C82   1.379       .  A
C81          H84   1.083       .  S
C82         C653   1.480   1_655  S
N85          C89   1.361       .  A
N85          C86   1.367       .  A
N85         N196   1.429       .  S
C86          C87   1.383       .  A
C86         C629   1.494       .  S
C87          C88   1.373       .  A
C87          H90   1.083       .  S
C88          C89   1.384       .  A
C88          H91   1.082       .  S
C89         C617   1.490       .  S
N92          C96   1.365       .  A
N92          C93   1.376       .  A
N92         N277   1.432       .  S
C93          C94   1.384       .  A
C93         C605   1.496       .  S
C94          C95   1.358       .  A
C94          H97   1.082       .  S
C95          C96   1.378       .  A
C95          H98   1.083       .  S
C96         C593   1.485       .  S
N99         C103   1.370       .  A
N99         C100   1.370       .  A
N99         N166   1.430       .  S
C100        C101   1.380       .  A
C100        C569   1.475       .  S
C101        C102   1.353       .  A
C101        H104   1.083       .  S
C102        C103   1.380       .  A
C102        H105   1.083       .  S
C103        C581   1.476       .  S
O106        C122   1.278       .  A
O106       Zn112   2.034       .  S
C107        C620   1.486       .  S
C107        O123   1.273       .  A
C107        O120   1.274       .  A
O108        C121   1.272       .  A
O108       Cd115   2.044       .  S
O109        C127   1.276       .  A
O109       Cd118   2.066       .  S
O110        C124   1.273       .  A
O110       Cd114   2.057       .  S
O111        C122   1.271       .  A
O111       Cd114   2.061       .  S
Zn112       O123   2.014       .  S
Zn112       O125   2.039       .  S
Zn112       O117   1.941       .  S
O113        C124   1.275       .  A
O113       Cd118   2.089       .  S
Cd114       O116   2.071       .  S
Cd114       O117   1.995       .  S
Cd115       O119   2.054       .  S
Cd115       O128   2.070       .  S
Cd115       O117   1.993       .  S
O116        C126   1.275       .  A
O117       Cd118   2.003       .  S
Cd118       O120   2.067       .  S
O119        C126   1.273       .  A
C121        C557   1.492       .  S
C121        O125   1.276       .  A
C122        C584   1.494       .  S
C124        C800   1.471       .  S
C126        C845   1.481       .  S
C127        C737   1.468       .  S
C127        O128   1.272       .  A
N129        C133   1.367       .  A
N129        C130   1.368       .  A
N129        N210   1.429       .  S
C130        C131   1.381       .  A
C130        C545   1.491       .  S
C131        C132   1.363       .  A
C131        H134   1.082       .  S
C132        C133   1.385       .  A
C132        H135   1.082       .  S
C133        C533   1.491       .  S
N136        C140   1.361       .  A
N136        C137   1.367       .  A
N136        N240   1.428       .  S
C137        C138   1.383       .  A
C137        C560   1.478       .  S
C138        C139   1.359       .  A
C138        H141   1.083       .  S
C139        C140   1.378       .  A
C139        H142   1.083       .  S
C140        C524   1.468       .  S
O143        C159   1.272       .  A
O143       Zn149   2.002       .  S
C144        C509   1.486       .  S
C144        O160   1.274       .  A
C144        O157   1.279       .  A
O145        C158   1.280       .  A
O145       Cd152   2.104       .  S
O146        C164   1.278       .  A
O146       Cd155   2.090       .  S
O147        C161   1.273       .  A
O147       Cd151   2.076       .  S
O148        C159   1.272       .  A
O148       Cd151   2.051       .  S
Zn149       O160   2.009       .  S
Zn149       O162   2.004       .  S
Zn149       O154   1.934       .  S
O150        C161   1.279       .  A
O150       Cd155   2.101       .  S
Cd151       O153   2.035       .  S
Cd151       O154   1.990       .  S
Cd152       O156   2.116       .  S
Cd152       O165   2.069       .  S
Cd152       O154   2.013       .  S
O153        C163   1.272       .  A
O154       Cd155   2.016       .  S
Cd155       O157   2.109       .  S
O156        C163   1.278       .  A
C158        C548   1.497       .  S
C158        O162   1.270       .  A
C159        C521   1.477       .  S
C161        C884   1.479       .  S
C163        C728   1.501       .  S
C164        C788   1.481       .  S
C164        O165   1.279       .  A
N166        C170   1.367       .  A
N166        C167   1.366       .  A
C167        C168   1.384       .  A
C167        C497   1.491       .  S
C168        C169   1.366       .  A
C168        H171   1.083   1_455  S
C169        C170   1.382       .  A
C169        H172   1.083   1_455  S
C170        C485   1.488       .  S
O173        C189   1.270       .  A
O173       Zn179   1.987       .  S
C174        C833   1.479       .  S
C174        O190   1.270       .  A
C174        O187   1.278       .  A
O175        C188   1.277       .  A
O175       Cd182   2.084       .  S
O176        C194   1.277       .  A
O176       Cd185   2.078       .  S
O177        C191   1.275       .  A
O177       Cd181   2.067       .  S
O178        C189   1.274       .  A
O178       Cd181   2.081       .  S
Zn179       O190   1.980       .  S
Zn179       O192   1.999       .  S
Zn179       O184   1.922       .  S
O180        C191   1.277       .  A
O180       Cd185   2.083       .  S
Cd181       O183   2.089       .  S
Cd181       O184   2.009       .  S
Cd182       O186   2.066       .  S
Cd182       O195   2.077       .  S
Cd182       O184   1.999       .  S
O183        C193   1.276       .  A
O184       Cd185   2.010       .  S
Cd185       O187   2.102       .  S
O186        C193   1.276       .  A
C188        C680   1.488       .  S
C188        O192   1.270       .  A
C189        C905   1.471       .  S
C191        C476   1.483       .  S
C193        C632   1.477       .  S
C194        C500   1.473       .  S
C194        O195   1.275       .  A
N196        C200   1.368       .  A
N196        C197   1.365       .  A
C197        C198   1.385       .  A
C197        C461   1.490       .  S
C198        C199   1.367       .  A
C198        H201   1.082       .  S
C199        C200   1.380       .  A
C199        H202   1.083       .  S
C200        C512   1.496       .  S
N203        C207   1.364       .  A
N203        C204   1.361       .  A
N203        N270   1.427       .  S
C204        C205   1.387       .  A
C204        C473   1.484       .  S
C205        C206   1.371       .  A
C205        H208   1.083       .  S
C206        C207   1.379       .  A
C206        H209   1.082       .  S
C207        C449   1.490       .  S
N210        C214   1.368       .  A
N210        C211   1.370       .  A
C211        C212   1.381       .  A
C211        C437   1.485       .  S
C212        C213   1.358       .  A
C212        H215   1.083       .  S
C213        C214   1.379       .  A
C213        H216   1.083       .  S
C214        C425   1.480       .  S
O217        C233   1.275       .  A
O217       Zn223   2.010       .  S
C218        C764   1.503       .  S
C218        O234   1.277       .  A
C218        O231   1.277       .  A
O219        C232   1.276       .  A
O219       Cd226   2.070       .  S
O220        C238   1.275       .  A
O220       Cd229   2.075       .  S
O221        C235   1.277       .  A
O221       Cd225   2.091       .  S
O222        C233   1.276       .  A
O222       Cd225   2.082       .  S
Zn223       O234   2.052       .  S
Zn223       O236   2.043       .  S
Zn223       O228   1.945       .  S
O224        C235   1.273       .  A
O224       Cd229   2.062       .  S
Cd225       O227   2.066       .  S
Cd225       O228   2.008       .  S
Cd226       O230   2.091       .  S
Cd226       O239   2.060       .  S
Cd226       O228   2.003       .  S
O227        C237   1.275       .  A
O228       Cd229   1.997       .  S
Cd229       O231   2.073       .  S
O230        C237   1.275       .  A
C232        C668   1.500       .  S
C232        O236   1.277       .  A
C233        C716   1.478       .  S
C235        C452   1.491       .  S
C237        C428   1.474       .  S
C238        C464   1.474       .  S
C238        O239   1.275       .  A
N240        C244   1.367       .  A
N240        C241   1.363       .  A
C241        C242   1.382       .  A
C241        C413   1.483       .  S
C242        C243   1.363       .  A
C242        H245   1.083       .  S
C243        C244   1.381       .  A
C243        H246   1.082       .  S
C244        C401   1.488       .  S
O247        C263   1.275       .  A
O247       Zn253   2.038       .  S
C248        C404   1.500       .  S
C248        O264   1.276       .  A
C248        O261   1.276       .  A
O249        C262   1.279       .  A
O249       Cd256   2.082       .  S
O250        C268   1.276       .  A
O250       Cd259   2.064       .  S
O251        C265   1.274       .  A
O251       Cd255   2.060       .  S
O252        C263   1.277       .  A
O252       Cd255   2.077       .  S
Zn253       O264   2.042       .  S
Zn253       O266   2.030       .  S
Zn253       O258   1.953       .  S
O254        C265   1.273       .  A
O254       Cd259   2.074       .  S
Cd255       O257   2.085       .  S
Cd255       O258   2.003       .  S
Cd256       O260   2.077       .  S
Cd256       O269   2.100       .  S
Cd256       O258   2.006       .  S
O257        C267   1.274       .  A
O258       Cd259   2.002       .  S
Cd259       O261   2.068       .  S
O260        C267   1.276       .  A
C262        C536   1.497       .  S
C262        O266   1.276       .  A
C263        C389   1.501       .  S
C265        C896   1.467       .  S
C267        C641   1.476       .  S
C268        C872   1.496       .  S
C268        O269   1.277       .  A
N270        C274   1.364       .  A
N270        C271   1.352       .  A
C271        C272   1.382       .  A
C271        C377   1.498       .  S
C272        C273   1.381       .  A
C272        H275   1.082       .  S
C273        C274   1.388       .  A
C273        H276   1.083       .  S
C274        C365   1.498       .  S
N277        C281   1.373       .  A
N277        C278   1.365       .  A
C278        C279   1.380       .  A
C278        C353   1.474       .  S
C279        C280   1.357       .  A
C279        H282   1.083       .  S
C280        C281   1.381       .  A
C280        H283   1.083       .  S
C281        C392   1.484       .  S
O284        C300   1.275       .  A
O284       Zn290   2.041       .  S
C285        C380   1.479       .  S
C285        O301   1.275       .  A
C285        O298   1.278       .  A
O286        C299   1.274       .  A
O286       Cd293   2.057       .  S
O287        C305   1.278       .  A
O287       Cd296   2.110       .  S
O288        C302   1.275       .  A
O288       Cd292   2.065       .  S
O289        C300   1.275       .  A
O289       Cd292   2.072       .  S
Zn290       O301   1.994       .  S
Zn290       O303   2.025       .  S
Zn290       O295   1.937       .  S
O291        C302   1.278       .  A
O291       Cd296   2.081       .  S
Cd292       O294   2.047       .  S
Cd292       O295   1.985       .  S
Cd293       O297   2.073       .  S
Cd293       O306   2.054       .  S
Cd293       O295   2.000       .  S
O294        C304   1.273       .  A
O295       Cd296   2.014       .  S
Cd296       O298   2.090       .  S
O297        C304   1.272       .  A
C299        C356   1.486       .  S
C299        O303   1.275       .  A
C300        C440   1.499       .  S
C302        C860   1.483       .  S
C304        C809   1.465       .  S
C305        C776   1.477       .  S
C305        O306   1.272       .  A
O307        C323   1.275       .  A
O307       Zn313   2.030       .  S
C308        C689   1.484       .  S
C308        O324   1.273       .  A
C308        O321   1.276       .  A
O309        C322   1.274       .  A
O309       Cd316   2.077       .  S
O310        C328   1.275       .  A
O310       Cd319   2.087       .  S
O311        C325   1.274       .  A
O311       Cd315   2.072       .  S
O312        C323   1.275       .  A
O312       Cd315   2.073       .  S
Zn313       O324   2.013       .  S
Zn313       O326   1.998       .  S
Zn313       O318   1.936       .  S
O314        C325   1.277       .  A
O314       Cd319   2.074       .  S
Cd315       O317   2.078       .  S
Cd315       O318   1.999       .  S
Cd316       O320   2.088       .  S
Cd316       O329   2.072       .  S
Cd316       O318   2.008       .  S
O317        C327   1.277       .  A
O318       Cd319   2.010       .  S
Cd319       O321   2.091       .  S
O320        C327   1.276       .  A
C322        C917   1.468       .  S
C322        O326   1.272       .  A
C323        C824   1.490       .  S
C325        C488   1.470       .  S
C327        C608   1.477       .  S
C328        C368   1.500       .  S
C328        O329   1.278       .  A
O330        C346   1.274       .  A
O330       Zn336   2.011       .  S
C331        C572   1.492       .  S
C331        O347   1.277       .  A
C331        O344   1.273       .  A
O332        C345   1.276       .  A
O332       Cd339   2.061       .  S
O333        C351   1.274       .  A
O333       Cd342   2.081       .  S
O334        C348   1.274       .  A
O334       Cd338   2.083       .  S
O335        C346   1.273       .  A
O335       Cd338   2.062       .  S
Zn336       O347   2.029       .  S
Zn336       O349   2.039       .  S
Zn336       O341   1.944       .  S
O337        C348   1.274       .  A
O337       Cd342   2.066       .  S
Cd338       O340   2.064       .  S
Cd338       O341   1.994       .  S
Cd339       O343   2.088       .  S
Cd339       O352   2.053       .  S
Cd339       O341   1.990       .  S
O340        C350   1.276       .  A
O341       Cd342   2.001       .  S
Cd342       O344   2.065       .  S
O343        C350   1.275       .  A
C345        C416   1.490       .  S
C345        O349   1.275       .  A
C346        C596   1.485       .  S
C348        C656   1.471       .  S
C350        C749   1.483       .  S
C351        C701   1.470       .  S
C351        O352   1.274       .  A
C353        C354   1.403       .  A
C353        C358   1.412       .  A
C354        C355   1.399       .  A
C354        H363   1.084       .  S
C355        C356   1.416       .  A
C355        S359   1.802       .  S
C356        C357   1.407       .  A
C357        C358   1.395       .  A
C357        H364   1.083       .  S
C358        S360   1.807       .  S
S359        H362   1.408       .  S
S360        H361   1.406       .  S
C365        C366   1.401       .  A
C365        C370   1.421       .  A
C366        C367   1.407       .  A
C366        H375   1.081       .  S
C367        C368   1.422       .  A
C367        S371   1.800       .  S
C368        C369   1.405       .  A
C369        C370   1.398       .  A
C369        H376   1.081       .  S
C370        S372   1.813       .  S
S371        H374   1.408       .  S
S372        H373   1.406       .  S
C377        C378   1.409       .  A
C377        C382   1.427       .  A
C378        C379   1.409       .  A
C378        H387   1.083       .  S
C379        C380   1.409       .  A
C379        S383   1.804       .  S
C380        C381   1.397       .  A
C381        C382   1.393       .  A
C381        H388   1.082       .  S
C382        S384   1.813       .  S
S383        H386   1.407       .  S
S384        H385   1.406       .  S
C389        C390   1.408       .  A
C389        C394   1.421       .  A
C390        C391   1.399       .  A
C390        H399   1.083       .  S
C391        C392   1.413       .  A
C391        S395   1.807       .  S
C392        C393   1.404       .  A
C393        C394   1.408       .  A
C393        H400   1.080       .  S
C394        S396   1.808       .  S
S395        H398   1.405       .  S
S396        H397   1.408       .  S
C401        C402   1.402       .  A
C401        C406   1.409       .  A
C402        C403   1.405       .  A
C402        H411   1.078       .  S
C403        C404   1.421       .  A
C403        S407   1.810       .  S
C404        C405   1.411       .  A
C405        C406   1.403       .  A
C405        H412   1.082       .  S
C406        S408   1.808       .  S
S407        H410   1.407       .  S
S408        H409   1.406       .  S
C413        C414   1.406       .  A
C413        C418   1.412       .  A
C414        C415   1.402       .  A
C414        H423   1.082       .  S
C415        C416   1.417       .  A
C415        S419   1.800       .  S
C416        C417   1.406       .  A
C417        C418   1.397       .  A
C417        H424   1.084       .  S
C418        S420   1.805       .  S
S419        H422   1.407       .  S
S420        H421   1.401       .  S
C425        C426   1.407       .  A
C425        C430   1.414       .  A
C426        C427   1.402       .  A
C426        H435   1.082       .  S
C427        C428   1.409       .  A
C427        S431   1.802       .  S
C428        C429   1.401       .  A
C429        C430   1.400       .  A
C429        H436   1.084       .  S
C430        S432   1.800       .  S
S431        H434   1.406       .  S
S432        H433   1.402       .  S
C437        C438   1.404       .  A
C437        C442   1.411       .  A
C438        C439   1.406       .  A
C438        H447   1.082       .  S
C439        C440   1.420       .  A
C439        S443   1.802       .  S
C440        C441   1.408       .  A
C441        C442   1.401       .  A
C441        H448   1.082       .  S
C442        S444   1.808       .  S
S443        H446   1.408       .  S
S444        H445   1.407       .  S
C449        C450   1.403       .  A
C449        C454   1.412       .  A
C450        C451   1.399       .  A
C450        H459   1.083       .  S
C451        C452   1.417       .  A
C451        S455   1.803       .  S
C452        C453   1.407       .  A
C453        C454   1.406       .  A
C453        H460   1.083       .  S
C454        S456   1.806       .  S
S455        H458   1.408       .  S
S456        H457   1.407       .  S
C461        C462   1.406       .  A
C461        C466   1.419       .  A
C462        C463   1.395       .  A
C462        H471   1.078       .  S
C463        C464   1.407       .  A
C463        S467   1.802       .  S
C464        C465   1.403       .  A
C465        C466   1.400       .  A
C465        H472   1.084       .  S
C466        S468   1.807       .  S
S467        H470   1.408       .  S
S468        H469   1.402       .  S
C473        C474   1.405       .  A
C473        C478   1.413       .  A
C474        C475   1.399       .  A
C474        H483   1.083       .  S
C475        C476   1.414       .  A
C475        S479   1.804       .  S
C476        C477   1.405       .  A
C477        C478   1.404       .  A
C477        H484   1.083       .  S
C478        S480   1.808       .  S
S479        H482   1.407       .  S
S480        H481   1.407       .  S
C485        C486   1.404       .  A
C485        C490   1.419       .  A
C486        C487   1.392       .  A
C486        H495   1.075       .  S
C487        C488   1.405       .  A
C487        S491   1.805       .  S
C488        C489   1.404       .  A
C489        C490   1.405       .  A
C489        H496   1.084       .  S
C490        S492   1.808   1_455  S
S491        H494   1.407       .  S
S492        H493   1.403       .  S
C497        C498   1.404       .  A
C497        C502   1.418       .  A
C498        C499   1.396       .  A
C498        H507   1.077       .  S
C499        C500   1.409       .  A
C499        S503   1.806       .  S
C500        C501   1.401       .  A
C501        C502   1.403       .  A
C501        H508   1.084       .  S
C502        S504   1.802   1_455  S
S503        H506   1.406       .  S
S504        H505   1.402       .  S
C509        C510   1.402       .  A
C509        C514   1.412       .  A
C510        C511   1.408       .  A
C510        H519   1.083       .  S
C511        C512   1.417       .  A
C511        S515   1.801       .  S
C512        C513   1.406       .  A
C513        C514   1.404       .  A
C513        H520   1.083       .  S
C514        S516   1.808       .  S
S515        H518   1.407       .  S
S516        H517   1.407       .  S
C521        C522   1.403       .  A
C521        C526   1.413       .  A
C522        C523   1.394       .  A
C522        H531   1.084       .  S
C523        C524   1.413       .  A
C523        S527   1.802       .  S
C524        C525   1.403       .  A
C525        C526   1.395       .  A
C525        H532   1.083       .  S
C526        S528   1.804       .  S
S527        H530   1.396       .  S
S528        H529   1.407       .  S
C533        C534   1.403       .  A
C533        C538   1.415       .  A
C534        C535   1.405       .  A
C534        H543   1.080       .  S
C535        C536   1.421       .  A
C535        S539   1.809       .  S
C536        C537   1.408       .  A
C537        C538   1.400       .  A
C537        H544   1.084       .  S
C538        S540   1.806       .  S
S539        H542   1.407       .  S
S540        H541   1.400       .  S
C545        C546   1.402       .  A
C545        C550   1.414       .  A
C546        C547   1.404       .  A
C546        H555   1.079       .  S
C547        C548   1.423       .  A
C547        S551   1.810       .  S
C548        C549   1.406       .  A
C549        C550   1.402       .  A
C549        H556   1.084       .  S
C550        S552   1.802       .  S
S551        H554   1.407       .  S
S552        H553   1.406       .  S
C557        C558   1.409       .  A
C557        C562   1.416       .  A
C558        C559   1.397       .  A
C558        H567   1.082       .  S
C559        C560   1.409       .  A
C559        S563   1.810       .  S
C560        C561   1.403       .  A
C561        C562   1.404       .  A
C561        H568   1.080       .  S
C562        S564   1.807       .  S
S563        H566   1.406   1_545  S
S564        H565   1.407       .  S
C569        C570   1.404       .  A
C569        C574   1.413       .  A
C570        C571   1.400       .  A
C570        H579   1.082       .  S
C571        C572   1.418       .  A
C571        S575   1.802       .  S
C572        C573   1.405       .  A
C573        C574   1.398       .  A
C573        H580   1.083       .  S
C574        S576   1.797       .  S
S575        H578   1.408       .  S
S576        H577   1.396       .  S
C581        C582   1.403       .  A
C581        C586   1.410       .  A
C582        C583   1.399       .  A
C582        H591   1.084       .  S
C583        C584   1.420       .  A
C583        S587   1.801       .  S
C584        C585   1.406       .  A
C585        C586   1.402       .  A
C585        H592   1.082       .  S
C586        S588   1.801       .  S
S587        H590   1.408       .  S
S588        H589   1.406       .  S
C593        C594   1.406       .  A
C593        C598   1.417       .  A
C594        C595   1.398       .  A
C594        H603   1.083       .  S
C595        C596   1.413       .  A
C595        S599   1.802       .  S
C596        C597   1.403       .  A
C597        C598   1.396       .  A
C597        H604   1.084       .  S
C598        S600   1.796       .  S
S599        H602   1.408       .  S
S600        H601   1.395       .  S
C605        C606   1.404       .  A
C605        C610   1.417       .  A
C606        C607   1.405       .  A
C606        H615   1.072       .  S
C607        C608   1.407       .  A
C607        S611   1.806       .  S
C608        C609   1.400       .  A
C609        C610   1.405       .  A
C609        H616   1.083       .  S
C610        S612   1.806       .  S
S611        H614   1.407       .  S
S612        H613   1.407       .  S
C617        C618   1.404       .  A
C617        C622   1.412       .  A
C618        C619   1.395       .  A
C618        H627   1.077       .  S
C619        C620   1.416       .  A
C619        S623   1.811       .  S
C620        C621   1.409       .  A
C621        C622   1.403       .  A
C621        H628   1.084       .  S
C622        S624   1.804       .  S
S623        H626   1.407       .  S
S624        H625   1.406       .  S
C629        C630   1.405       .  A
C629        C634   1.420       .  A
C630        C631   1.395       .  A
C630        H639   1.079       .  S
C631        C632   1.409       .  A
C631        S635   1.806       .  S
C632        C633   1.403       .  A
C633        C634   1.407       .  A
C633        H640   1.084       .  S
C634        S636   1.805       .  S
S635        H638   1.408       .  S
S636        H637   1.403       .  S
C641        C642   1.400       .  A
C641        C646   1.410       .  A
C642        C643   1.401       .  A
C642        H651   1.084       .  S
C643        C644   1.417       .  A
C643        S647   1.796       .  S
C644        C645   1.409       .  A
C645        C646   1.403       .  A
C645        H652   1.084       .  S
C646        S648   1.802       .  S
S647        H650   1.398   1_554  S
S648        H649   1.405       .  S
C653        C654   1.403       .  A
C653        C658   1.414       .  A
C654        C655   1.397       .  A
C654        H663   1.078   1_455  S
C655        C656   1.409       .  A
C655        S659   1.803       .  S
C656        C657   1.402       .  A
C657        C658   1.401       .  A
C657        H664   1.084       .  S
C658        S660   1.804       .  S
S659        H662   1.405       .  S
S660        H661   1.405       .  S
C665        C666   1.404       .  A
C665        C670   1.412       .  A
C666        C667   1.400       .  A
C666        H675   1.077       .  S
C667        C668   1.419       .  A
C667        S671   1.802       .  S
C668        C669   1.411       .  A
C669        C670   1.402       .  A
C669        H676   1.083       .  S
C670        S672   1.805       .  S
S671        H674   1.408       .  S
S672        H673   1.406       .  S
C677        C678   1.402   1_455  A
C677        C682   1.411       .  A
C678        C679   1.400   1_655  A
C678        H687   1.078       .  S
C679        C680   1.420       .  A
C679        S683   1.811       .  S
C680        C681   1.406       .  A
C681        C682   1.400       .  A
C681        H688   1.084       .  S
C682        S684   1.801       .  S
S683        H686   1.407   1_455  S
S684        H685   1.400   1_556  S
C689        C690   1.405       .  A
C689        C694   1.412       .  A
C690        C691   1.408   1_455  A
C690        H699   1.084       .  S
C691        C692   1.418       .  A
C691        S695   1.804       .  S
C692        C693   1.402   1_655  A
C693        C694   1.397       .  A
C693        H700   1.076       .  S
C694        S696   1.807       .  S
S695        H698   1.404       .  S
S696        H697   1.407       .  S
C701        C702   1.405       .  A
C701        C706   1.407       .  A
C702        C703   1.407   1_455  A
C702        H711   1.084       .  S
C703        C704   1.417       .  A
C703        S707   1.803       .  S
C704        C705   1.404   1_655  A
C705        C706   1.388       .  A
C705        H712   1.077   1_545  S
C706        S708   1.806       .  S
S707        H710   1.405       .  S
S708        H709   1.407       .  S
C713        C714   1.405       .  A
C713        C718   1.418       .  A
C714        C715   1.388       .  A
C714        H723   1.081       .  S
C715        C716   1.410       .  A
C715        S719   1.806       .  S
C716        C717   1.406       .  A
C717        C718   1.409       .  A
C717        H724   1.084       .  S
C718        S720   1.804       .  S
S719        H722   1.407       .  S
S720        H721   1.403       .  S
C725        C726   1.406       .  A
C725        C730   1.412       .  A
C726        C727   1.411       .  A
C726        H735   1.083       .  S
C727        C728   1.420       .  A
C727        S731   1.799       .  S
C728        C729   1.408       .  A
C729        C730   1.392       .  A
C729        H736   1.081       .  S
C730        S732   1.807   1_545  S
S731        H734   1.407       .  S
S732        H733   1.407       .  S
C737        C738   1.405       .  A
C737        C742   1.402       .  A
C738        C739   1.410   1_545  A
C738        H747   1.083       .  S
C739        C740   1.418       .  A
C739        S743   1.803       .  S
C740        C741   1.406   1_565  A
C741        C742   1.385       .  A
C741        H748   1.068       .  S
C742        S744   1.807       .  S
S743        H746   1.407       .  S
S744        H745   1.407       .  S
C749        C750   1.410       .  A
C749        C754   1.409       .  A
C750        C751   1.412   1_545  A
C750        H759   1.083       .  S
C751        C752   1.415       .  A
C751        S755   1.803       .  S
C752        C753   1.401   1_565  A
C753        C754   1.388       .  A
C753        H760   1.066       .  S
C754        S756   1.806       .  S
S755        H758   1.403       .  S
S756        H757   1.407       .  S
C761        C762   1.405       .  A
C761        C766   1.415       .  A
C762        C763   1.407       .  A
C762        H771   1.084       .  S
C763        C764   1.422       .  A
C763        S767   1.800       .  S
C764        C765   1.407       .  A
C765        C766   1.398       .  A
C765        H772   1.083       .  S
C766        S768   1.806       .  S
S767        H770   1.406       .  S
S768        H769   1.397       .  S
C773        C774   1.404       .  A
C773        C778   1.419       .  A
C774        C775   1.402       .  A
C774        H783   1.082       .  S
C775        C776   1.411       .  A
C775        S779   1.803       .  S
C776        C777   1.401       .  A
C777        C778   1.403       .  A
C777        H784   1.084       .  S
C778        S780   1.806       .  S
S779        H782   1.407       .  S
S780        H781   1.406       .  S
C785        C786   1.406       .  A
C785        C790   1.416       .  A
C786        C787   1.405       .  A
C786        H795   1.084       .  S
C787        C788   1.413       .  A
C787        S791   1.799       .  S
C788        C789   1.399       .  A
C789        C790   1.398       .  A
C789        H796   1.083       .  S
C790        S792   1.802       .  S
S791        H794   1.406       .  S
S792        H793   1.407       .  S
C797        C798   1.405       .  A
C797        C802   1.419       .  A
C798        C799   1.399       .  A
C798        H807   1.081   1_455  S
C799        C800   1.407       .  A
C799        S803   1.802       .  S
C800        C801   1.399       .  A
C801        C802   1.404       .  A
C801        H808   1.083       .  S
C802        S804   1.804       .  S
S803        H806   1.406       .  S
S804        H805   1.407       .  S
C809        C810   1.398       .  A
C809        C814   1.408       .  A
C810        C811   1.395       .  A
C810        H819   1.085       .  S
C811        C812   1.416       .  A
C811        S815   1.802       .  S
C812        C813   1.406       .  A
C813        C814   1.398       .  A
C813        H820   1.084       .  S
C814        S816   1.803       .  S
S815        H818   1.393       .  S
S816        H817   1.405       .  S
C821        C822   1.403   1_655  A
C821        C826   1.414   1_655  A
C822        C823   1.404       .  A
C822        H831   1.079   1_455  S
C823        C824   1.415       .  A
C823        S827   1.807       .  S
C824        C825   1.406       .  A
C825        C826   1.398       .  A
C825        H832   1.083       .  S
C826        S828   1.807       .  S
S827        H830   1.408       .  S
S828        H829   1.406   1_455  S
C833        C834   1.407   1_455  A
C833        C838   1.410       .  A
C834        C835   1.404       .  A
C834        H843   1.083       .  S
C835        C836   1.412       .  A
C835        S839   1.808       .  S
C836        C837   1.405       .  A
C837        C838   1.398   1_655  A
C837        H844   1.083   1_655  S
C838        S840   1.799       .  S
S839        H842   1.407       .  S
S840        H841   1.407       .  S
C845        C846   1.406   1_455  A
C845        C850   1.415       .  A
C846        C847   1.399       .  A
C846        H855   1.084       .  S
C847        C848   1.413       .  A
C847        S851   1.804       .  S
C848        C849   1.405   1_655  A
C849        C850   1.395       .  A
C849        H856   1.082   1_545  S
C850        S852   1.804       .  S
S851        H854   1.407       .  S
S852        H853   1.408       .  S
C857        C858   1.404       .  A
C857        C862   1.416       .  A
C858        C859   1.396       .  A
C858        H867   1.075       .  S
C859        C860   1.411       .  A
C859        S863   1.803       .  S
C860        C861   1.406       .  A
C861        C862   1.401       .  A
C861        H868   1.084       .  S
C862        S864   1.806       .  S
S863        H866   1.407       .  S
S864        H865   1.402       .  S
C869        C870   1.408       .  A
C869        C874   1.415       .  A
C870        C871   1.408       .  A
C870        H879   1.083       .  S
C871        C872   1.417       .  A
C871        S875   1.808       .  S
C872        C873   1.405       .  A
C873        C874   1.402       .  A
C873        H880   1.082       .  S
C874        S876   1.801   1_545  S
S875        H878   1.407       .  S
S876        H877   1.406   1_565  S
C881        C882   1.406       .  A
C881        C886   1.422       .  A
C882        C883   1.405       .  A
C882        H891   1.082       .  S
C883        C884   1.412       .  A
C883        S887   1.802       .  S
C884        C885   1.399       .  A
C885        C886   1.401       .  A
C885        H892   1.084       .  S
C886        S888   1.810       .  S
S887        H890   1.406       .  S
S888        H889   1.403       .  S
C893        C894   1.406       .  A
C893        C898   1.414       .  A
C894        C895   1.397       .  A
C894        H903   1.082       .  S
C895        C896   1.407       .  A
C895        S899   1.803       .  S
C896        C897   1.401       .  A
C897        C898   1.399       .  A
C897        H904   1.084       .  S
C898        S900   1.800       .  S
S899        H902   1.405       .  S
S900        H901   1.401   1_545  S
C905        C906   1.404       .  A
C905        C910   1.408       .  A
C906        C907   1.402       .  A
C906        H915   1.083       .  S
C907        C908   1.411       .  A
C907        S911   1.807       .  S
C908        C909   1.405       .  A
C909        C910   1.397       .  A
C909        H916   1.080       .  S
C910        S912   1.800       .  S
S911        H914   1.407       .  S
S912        H913   1.405       .  S
C917        C918   1.402       .  A
C917        C922   1.407       .  A
C918        C919   1.396       .  A
C918        H927   1.080       .  S
C919        C920   1.411       .  A
C919        S923   1.805       .  S
C920        C921   1.409       .  A
C921        C922   1.398       .  A
C921        H928   1.080       .  S
C922        S924   1.804       .  S
S923        H926   1.402       .  S
S924        H925   1.406       .  S
