geometry optimzed in LAMMPS
_audit_creation_date              2020-11-30 
_audit_creation_method            'lammps2cif' 
_symmetry_space_group_name_H-M    'P1' 
_symmetry_Int_Tables_number       1 
_symmetry_cell_setting            triclinic 
loop_ 
_symmetry_equiv_pos_as_xyz 
  x,y,z 
_cell_length_a                    24.61180696 
_cell_length_b                    24.632261089934993 
_cell_length_c                    24.63265377415217 
_cell_angle_alpha                 90.208321906896 
_cell_angle_beta                  89.85929877070788 
_cell_angle_gamma                 90.3246212213232 
loop_ 
_atom_site_label 
_atom_site_type_symbol 
_atom_site_fract_x 
_atom_site_fract_y 
_atom_site_fract_z 
_atom_site_charge 
C1          C  0.24155032  0.85773104  0.95274271     0.04000
C2          C  0.26068463  0.91140724  0.95509616    -0.12200
C3          C  0.26314932  0.93998030  0.00370313     0.01500
C4          C  0.25199636  0.91354997  0.05223140    -0.10700
C5          C  0.23582865  0.85900934  0.05232010     0.04000
C6          C  0.22953298  0.83074892  0.00227396    -0.10100
H7          H  0.26946052  0.93370269  0.91813897     0.09600
H8          H  0.25282179  0.93641667  0.08998983     0.07100
H9          H  0.21410482  0.78950951  0.00191200     0.06900
C10         C  0.63986067  0.21315794  0.94467363     0.04000
C11         C  0.64869607  0.24285886  0.99338752    -0.12200
C12         C  0.63738237  0.21826298  0.04406599     0.01500
C13         C  0.61743601  0.16519049  0.04562502    -0.10700
C14         C  0.61192257  0.13457439  0.99825487     0.04000
C15         C  0.62142695  0.15905490  0.94819972    -0.10100
H16         H  0.66540174  0.28358770  0.99203213     0.09600
H17         H  0.61068283  0.14584396  0.08459567     0.07100
H18         H  0.61867556  0.13412562  0.91198535     0.06900
C19         C  0.74279859  0.97632421  0.28735001     0.04000
C20         C  0.79594223  0.98318637  0.30735942    -0.12200
C21         C  0.81864650  0.03462052  0.31448589     0.01500
C22         C  0.78738637  0.08031980  0.30447428    -0.10700
C23         C  0.73512562  0.07580939  0.28330615     0.04000
C24         C  0.71213026  0.02347320  0.27438026    -0.10100
H25         H  0.82163568  0.94824745  0.31371369     0.09600
H26         H  0.80543207  0.12027129  0.31002972     0.01900
H27         H  0.67197554  0.01958422  0.25694624     0.06900
C28         C  0.13892418  0.99937770  0.71496780     0.04000
C29         C  0.08590195  0.99865777  0.69347956    -0.12200
C30         C  0.05899516  0.04620892  0.68082917     0.01500
C31         C  0.08543864  0.09558437  0.68713805    -0.10700
C32         C  0.13691102  0.09933301  0.71125191     0.04000
C33         C  0.16428653  0.05053690  0.72523538    -0.10100
H34         H  0.06351899  0.96084650  0.68931471     0.09600
H35         H  0.06296280  0.13179492  0.67682866     0.07100
H36         H  0.20405841  0.05233359  0.74386339     0.06900
C37         C  0.89626125  0.73983769  0.19978965     0.04000
C38         C  0.90059128  0.71751482  0.14741184    -0.12200
C39         C  0.94893819  0.72020030  0.11813061     0.01500
C40         C  0.99602704  0.73811210  0.14367826    -0.10700
C41         C  0.99477257  0.75612470  0.19751530     0.04000
C42         C  0.94444720  0.75830622  0.22582738    -0.10100
H43         H  0.86487249  0.70237200  0.12652058     0.09600
H44         H  0.03374657  0.74015544  0.12078543     0.07100
H45         H  0.94270841  0.77534698  0.26637777     0.06900
C46         C  0.88344987  0.31638310  0.80558898     0.04000
C47         C  0.93369129  0.31278498  0.77670428    -0.12200
C48         C  0.98265292  0.33138414  0.80176879     0.01500
C49         C  0.97948547  0.35440282  0.85383248    -0.10700
C50         C  0.93212418  0.35197804  0.88406249     0.04000
C51         C  0.88444064  0.33437286  0.85981627    -0.10100
H52         H  0.93469404  0.29578167  0.73614661     0.09600
H53         H  0.01547322  0.36993034  0.87402030     0.07100
H54         H  0.84808343  0.33263443  0.88473154     0.06900
C55         C  0.66346765  0.82501348  0.94958710     0.04000
C56         C  0.67276425  0.79729196  0.99954432    -0.12200
C57         C  0.65772095  0.82245333  0.04967153     0.01500
C58         C  0.63341214  0.87388204  0.04809779    -0.10700
C59         C  0.62870090  0.90264226  0.00027448     0.04000
C60         C  0.64210416  0.87796277  0.95160925    -0.10100
H61         H  0.69145879  0.75761277  0.99943168     0.09600
H62         H  0.62145413  0.89461454  0.08507769     0.07100
H63         H  0.63828311  0.90214226  0.91510996     0.06900
C64         C  0.21981050  0.24888655  0.05246432     0.04000
C65         C  0.20936304  0.27653696  0.00271465    -0.12200
C66         C  0.22404342  0.25174229  0.95238080     0.01500
C67         C  0.24921338  0.20068837  0.95356984    -0.10700
C68         C  0.25453362  0.17183862  0.00128045     0.04000
C69         C  0.24167412  0.19627779  0.05019694    -0.10100
H70         H  0.18999575  0.31588511  0.00315684     0.09600
H71         H  0.26068257  0.17995507  0.91641679     0.07100
H72         H  0.24581471  0.17209006  0.08665493     0.06900
C73         C  0.75197844  0.97563539  0.70706485     0.04000
C74         C  0.80530052  0.98076565  0.68696552    -0.12200
C75         C  0.82714285  0.03115835  0.67446592     0.01500
C76         C  0.79477405  0.07679000  0.67775376    -0.10700
C77         C  0.74328724  0.07507479  0.70239462     0.04000
C78         C  0.72112637  0.02358509  0.71669007    -0.10100
H79         H  0.83167393  0.94576531  0.68437961     0.09600
H80         H  0.81322592  0.11503866  0.66599567     0.07100
H81         H  0.68137028  0.02092856  0.73544175     0.06900
C82         C  0.13082313  0.10170932  0.29544103     0.04000
C83         C  0.07777146  0.09744946  0.31610176    -0.12200
C84         C  0.05103058  0.04772026  0.31918706     0.01500
C85         C  0.07922141  0.00024590  0.30795822    -0.10700
C86         C  0.13339158  0.00223589  0.29061482     0.04000
C87         C  0.15941804  0.05326759  0.28316327    -0.10100
H88         H  0.05444590  0.13357147  0.32530439     0.09600
H89         H  0.05793287  0.96155774  0.30975939     0.07100
H90         H  0.20021754  0.05516879  0.26676195     0.06900
C91         C  0.90329110  0.74247747  0.80302635     0.04000
C92         C  0.90549693  0.72010682  0.85531640    -0.12200
C93         C  0.95307700  0.72048898  0.88544570     0.01500
C94         C  0.00111734  0.73729449  0.86122735    -0.10700
C95         C  0.00269754  0.75552545  0.80720321     0.04000
C96         C  0.95280322  0.75994506  0.77821126    -0.10100
H97         H  0.86882672  0.70615498  0.87539961     0.09600
H98         H  0.03731990  0.73872142  0.88615178     0.07100
H99         H  0.95247653  0.77680052  0.73766951     0.06900
C100        C  0.97959677  0.33264131  0.19896926     0.04000
C101        C  0.93030348  0.31518155  0.22385847    -0.12200
C102        C  0.88103306  0.31705961  0.19379995     0.01500
C103        C  0.88187217  0.33411620  0.13985883    -0.10700
C104        C  0.92977468  0.35192991  0.11587542     0.04000
C105        C  0.97725024  0.35381228  0.14617893    -0.10100
H106        H  0.93039484  0.29930646  0.26474046     0.09600
H107        H  0.84501568  0.33190901  0.11582431     0.07100
H108        H  0.01375305  0.36810112  0.12592670     0.06900
C109        C  0.25089147  0.59952764  0.79021035     0.04000
C110        C  0.21863436  0.55202145  0.78335457    -0.12200
C111        C  0.24204687  0.50053093  0.79305606     0.01500
C112        C  0.29572509  0.49755213  0.81048019    -0.10700
C113        C  0.32803407  0.54386814  0.81456093     0.04000
C114        C  0.30541096  0.59471681  0.80536530    -0.10100
H115        H  0.17737428  0.55494971  0.76849846     0.09600
H116        H  0.31407762  0.45803853  0.81670486     0.07100
H117        H  0.33113986  0.63064071  0.80708643     0.06900
C118        C  0.24273046  0.60215076  0.21232209     0.04000
C119        C  0.21169563  0.55433446  0.22273642    -0.12200
C120        C  0.23419679  0.50273983  0.21053961     0.01500
C121        C  0.28620821  0.49953855  0.18841642    -0.10700
C122        C  0.31819006  0.54569925  0.18173657     0.04000
C123        C  0.29607593  0.59658520  0.19218157    -0.10100
H124        H  0.17171546  0.55708572  0.24089094     0.09600
H125        H  0.30393528  0.45999313  0.18064491     0.07100
H126        H  0.32228555  0.63182900  0.18811719     0.06900
C127        C  0.14800442  0.35737479  0.55219125     0.04000
C128        C  0.15390273  0.32861552  0.50268520    -0.12200
C129        C  0.14474077  0.35599542  0.45322198     0.01500
C130        C  0.12873358  0.41010604  0.45393327    -0.10700
C131        C  0.12548084  0.43900963  0.50248801     0.04000
C132        C  0.13423855  0.41235618  0.55143019    -0.10100
H133        H  0.16765392  0.28690672  0.50259724     0.09600
H134        H  0.12252431  0.43112550  0.41581099     0.07100
H135        H  0.13355468  0.43525757  0.58919165     0.06900
Zn136      Zn  0.22815684  0.23962528  0.77684766     1.49700
Zn137      Zn  0.23273723  0.34698416  0.70600029     1.49400
Zn138      Zn  0.12416707  0.27526324  0.70629254     1.49100
Zn139      Zn  0.15893435  0.34547212  0.81319835     1.49500
O140        O  0.18575399  0.30196420  0.75072975    -1.83300
O141        O  0.30637918  0.24101398  0.75130690    -0.73900
O142        O  0.20164661  0.35464464  0.63092822    -0.73700
O143        O  0.12895637  0.19463581  0.70425642    -0.73300
O144        O  0.30790362  0.31384363  0.69828626    -0.73900
O145        O  0.19701562  0.16483454  0.75439912    -0.73500
O146        O  0.12786448  0.30211904  0.62845527    -0.74100
O147        O  0.07794311  0.34290751  0.80857372    -0.73500
O148        O  0.23910257  0.42220923  0.73847386    -0.74300
O149        O  0.04873336  0.29542587  0.73771308    -0.73700
O150        O  0.18361187  0.42492595  0.80989406    -0.74100
O151        O  0.18235589  0.31483076  0.88861435    -0.74000
O152        O  0.22855604  0.24467307  0.85696321    -0.73800
C153        C  0.33103544  0.27232971  0.71843143     0.78000
C154        C  0.16094711  0.33483170  0.60572459     0.78500
C155        C  0.15642004  0.15552609  0.72369564     0.77400
C156        C  0.03899554  0.32334139  0.78029310     0.77800
C157        C  0.21767367  0.44774657  0.77819419     0.78900
C158        C  0.21111219  0.27269494  0.89687012     0.78000
C159        C  0.72145825  0.32668848  0.44575288     0.04000
C160        C  0.74515995  0.37876705  0.45008947    -0.12200
C161        C  0.75738733  0.40184690  0.50029322     0.01500
C162        C  0.74924864  0.37179148  0.54721371    -0.10700
C163        C  0.72391014  0.32113374  0.54548129     0.04000
C164        C  0.70963039  0.29780991  0.49448511    -0.10100
H165        H  0.75071603  0.40367158  0.41431692     0.09600
H166        H  0.75851710  0.39029778  0.58624354     0.07100
H167        H  0.68919600  0.25883883  0.49288649     0.06900
C168        C  0.38375162  0.25528764  0.69584248     0.04000
C169        C  0.43355650  0.25760845  0.72451676    -0.12200
C170        C  0.48187308  0.24071389  0.69827185     0.01500
C171        C  0.47952153  0.22092217  0.64525472    -0.10700
C172        C  0.43107520  0.22142435  0.61612937     0.04000
C173        C  0.38328742  0.23773730  0.64176668    -0.10100
H174        H  0.43495234  0.27396717  0.76535846     0.09600
H175        H  0.51687813  0.20948984  0.62468613     0.07100
H176        H  0.34579302  0.23934393  0.61872338     0.06900
Zn177      Zn  0.74878532  0.25079588  0.70523968     1.49700
Zn178      Zn  0.63983114  0.31919521  0.70108883     1.49400
Zn179      Zn  0.64098385  0.20739612  0.76795226     1.49100
Zn180      Zn  0.70669642  0.31346099  0.81158820     1.49500
O181        O  0.68399430  0.27254031  0.74667796    -1.83300
O182        O  0.74513932  0.27450872  0.62646447    -0.73900
O183        O  0.56117548  0.29414374  0.70293537    -0.73700
O184        O  0.67409657  0.13441840  0.74114619    -0.73300
O185        O  0.66596639  0.31727982  0.62211846    -0.73900
O186        O  0.74758318  0.17064482  0.70371617    -0.73500
O187        O  0.56252198  0.21313146  0.74275776    -0.74100
O188        O  0.67915557  0.27866472  0.88277296    -0.73500
O189        O  0.64259815  0.39747255  0.72850250    -0.74300
O190        O  0.63807258  0.20559302  0.84893931    -0.73700
O191        O  0.68336575  0.39262891  0.80883762    -0.74100
O192        O  0.78766104  0.31503543  0.81238711    -0.74000
O193        O  0.82210202  0.27686635  0.73851804    -0.73800
C194        C  0.70921693  0.29976729  0.59949788     0.78000
C195        C  0.53711204  0.25098579  0.71869678     0.78500
C196        C  0.71935776  0.12905271  0.71637494     0.77400
C197        C  0.65294170  0.23430263  0.88949645     0.77800
C198        C  0.65924721  0.41982852  0.77229480     0.78900
C199        C  0.82864206  0.30165301  0.78362024     0.78000
C200        C  0.15838712  0.75344609  0.45298728     0.04000
C201        C  0.13857115  0.69992773  0.45538772    -0.12200
C202        C  0.13812235  0.67087456  0.50348240     0.01500
C203        C  0.15158076  0.69661574  0.55175010    -0.10700
C204        C  0.16767943  0.75105568  0.55217438     0.04000
C205        C  0.17230075  0.77998887  0.50246267    -0.10100
H206        H  0.12691971  0.67832805  0.41878281     0.09600
H207        H  0.15122564  0.67355719  0.58920251     0.07100
H208        H  0.18738485  0.82133893  0.50227134     0.06900
Zn209      Zn  0.13856176  0.82343439  0.71030577     1.49700
Zn210      Zn  0.24400897  0.86678401  0.77618149     1.49400
Zn211      Zn  0.17899826  0.75885931  0.81636980     1.49100
Zn212      Zn  0.24968160  0.75612365  0.70821942     1.49500
O213        O  0.20284663  0.80153425  0.75286564    -1.83300
O214        O  0.13645101  0.90375662  0.71109159    -0.73900
O215        O  0.24585219  0.86444936  0.85710173    -0.73700
O216        O  0.09828305  0.75675835  0.81484812    -0.73300
O217        O  0.20778024  0.93958512  0.75288399    -0.73900
O218        O  0.06492523  0.79560366  0.74129271    -0.73500
O219        O  0.20372402  0.79170340  0.88971590    -0.74100
O220        O  0.25185031  0.67878339  0.73640257    -0.73500
O221        O  0.32312992  0.86488671  0.75005556    -0.74300
O222        O  0.20326393  0.68016789  0.81257309    -0.73700
O223        O  0.32677661  0.78499036  0.70778998    -0.74100
O224        O  0.22219611  0.75422247  0.63060626    -0.74000
O225        O  0.14492224  0.80077113  0.63126793    -0.73800
C226        C  0.16314494  0.94520003  0.72717073     0.78000
C227        C  0.23023313  0.83571814  0.89728995     0.78500
C228        C  0.05776085  0.77026273  0.78582913     0.77400
C229        C  0.23226306  0.65493421  0.77799664     0.77800
C230        C  0.34957620  0.82857446  0.72425887     0.78900
C231        C  0.18052953  0.77279360  0.60635100     0.78000
C232        C  0.63973604  0.47497468  0.78515724     0.04000
C233        C  0.58595402  0.47729729  0.80290098    -0.12200
C234        C  0.55942732  0.52678833  0.80826267     0.01500
C235        C  0.58777474  0.57497330  0.79940129    -0.10700
C236        C  0.64216241  0.57451579  0.78304508     0.04000
C237        C  0.66879593  0.52399230  0.77537053    -0.10100
H238        H  0.56335186  0.43992271  0.80944310     0.09600
H239        H  0.56639718  0.61337329  0.80250591     0.07100
H240        H  0.71013548  0.52283748  0.76028067     0.06900
C241        C  0.40441771  0.84071658  0.70318253     0.04000
C242        C  0.45337723  0.82323368  0.72761493    -0.12200
C243        C  0.50261676  0.82579261  0.69763041     0.01500
C244        C  0.50193573  0.84450990  0.64411484    -0.10700
C245        C  0.45356311  0.86082377  0.62011405     0.04000
C246        C  0.40565048  0.86086816  0.65035204    -0.10100
H247        H  0.45280258  0.80586620  0.76797111     0.09600
H248        H  0.53884645  0.84330561  0.61991045     0.07100
H249        H  0.36784818  0.87157511  0.63053561     0.06900
C250        C  0.73554836  0.71388654  0.44971875     0.04000
C251        C  0.75113655  0.65925791  0.45156242    -0.12200
C252        C  0.76201104  0.63420725  0.50113837     0.01500
C253        C  0.75923825  0.66445751  0.54902817    -0.10700
C254        C  0.74145614  0.71809492  0.54867325     0.04000
C255        C  0.73009573  0.74359665  0.49870410    -0.10100
H256        H  0.75215449  0.63541476  0.41438385     0.09600
H257        H  0.76698950  0.64472863  0.58751271     0.07100
H258        H  0.71505155  0.78483733  0.49808493     0.06900
Zn259      Zn  0.72613011  0.72911105  0.80934189     1.49700
Zn260      Zn  0.65294296  0.73130944  0.70112666     1.49400
Zn261      Zn  0.66033315  0.83701337  0.77433491     1.49100
Zn262      Zn  0.76475624  0.79935317  0.70437038     1.49500
O263        O  0.70129134  0.77390409  0.74732948    -1.83300
O264        O  0.70008800  0.65002300  0.80267646    -0.73900
O265        O  0.57822022  0.76654310  0.69526501    -0.73700
O266        O  0.66120002  0.83331335  0.85435961    -0.73300
O267        O  0.64455892  0.65517076  0.73162085    -0.73900
O268        O  0.70180109  0.75967472  0.88510149    -0.73500
O269        O  0.58127763  0.83698739  0.75177507    -0.74100
O270        O  0.76138986  0.88034282  0.70101496    -0.73500
O271        O  0.68477660  0.72454283  0.62548700    -0.74300
O272        O  0.69222579  0.91048079  0.75025005    -0.73700
O273        O  0.76279196  0.77074163  0.62681066    -0.74100
O274        O  0.83892657  0.77889824  0.73808328    -0.74000
O275        O  0.80765887  0.73064925  0.80735812    -0.73800
C276        C  0.66575678  0.62833901  0.77037426     0.78000
C277        C  0.55573513  0.80736405  0.71796689     0.78500
C278        C  0.67640914  0.80395521  0.89389257     0.77400
C279        C  0.73335625  0.91948831  0.72002617     0.77800
C280        C  0.72798962  0.74130394  0.60212453     0.78900
C281        C  0.84743835  0.75060450  0.78045349     0.78000
C282        C  0.47938987  0.24534625  0.30092096     0.04000
C283        C  0.43074806  0.26301654  0.27575296    -0.12200
C284        C  0.38116470  0.26148581  0.30535163     0.01500
C285        C  0.38106811  0.24457271  0.35949330    -0.10700
C286        C  0.42867986  0.22719745  0.38400588     0.04000
C287        C  0.47635276  0.22459563  0.35381821    -0.10100
H288        H  0.43154759  0.27864722  0.23477288     0.09600
H289        H  0.34387245  0.24649285  0.38322377     0.07100
H290        H  0.51250913  0.21027831  0.37415793     0.06900
Zn291      Zn  0.72288751  0.33831370  0.26894889     1.49700
Zn292      Zn  0.61749745  0.29993151  0.19991475     1.49400
Zn293      Zn  0.72617891  0.22946882  0.19650395     1.49100
Zn294      Zn  0.65564641  0.23176419  0.30600188     1.49500
O295        O  0.68054769  0.27483177  0.24288181    -1.83300
O296        O  0.69157742  0.41182630  0.24297454    -0.73900
O297        O  0.61813530  0.27118136  0.12243639    -0.73700
O298        O  0.80290200  0.26079212  0.19296450    -0.73300
O299        O  0.62129603  0.38068780  0.19582823    -0.73900
O300        O  0.80193400  0.33439454  0.24565551    -0.73500
O301        O  0.69521634  0.22446176  0.12005826    -0.74100
O302        O  0.67974787  0.15253285  0.30135398    -0.73500
O303        O  0.54380134  0.27972041  0.23473116    -0.74300
O304        O  0.73065704  0.15268726  0.22659571    -0.73700
O305        O  0.57456334  0.23335367  0.30518268    -0.74100
O306        O  0.68146810  0.26345726  0.38044801    -0.74000
O307        O  0.72343722  0.33717191  0.35012991    -0.73800
C308        C  0.64980551  0.42025893  0.21359566     0.78000
C309        C  0.65222134  0.24169777  0.09714888     0.78500
C310        C  0.82691254  0.30161613  0.21445361     0.77400
C311        C  0.71082521  0.12823641  0.26780938     0.77800
C312        C  0.53512014  0.25258302  0.27791035     0.78900
C313        C  0.70785802  0.30737107  0.38950752     0.78000
C314        C  0.49479605  0.81955403  0.30808129     0.04000
C315        C  0.44429731  0.81779359  0.28007820    -0.12200
C316        C  0.39605183  0.83512184  0.30687393     0.01500
C317        C  0.40025918  0.85494006  0.36021480    -0.10700
C318        C  0.44920562  0.85382182  0.38829176     0.04000
C319        C  0.49628792  0.83725495  0.36202182    -0.10100
H320        H  0.44247087  0.80199809  0.23904228     0.09600
H321        H  0.36434102  0.86748690  0.38237399     0.07100
H322        H  0.53417551  0.83597564  0.38454599     0.06900
C323        C  0.62999187  0.47615899  0.20161622     0.04000
C324        C  0.57676858  0.48031600  0.18150067    -0.12200
C325        C  0.55051603  0.53012803  0.17839375     0.01500
C326        C  0.57918452  0.57755108  0.18973889    -0.10700
C327        C  0.63309671  0.57555291  0.20736103     0.04000
C328        C  0.65880999  0.52463669  0.21420163    -0.10100
H329        H  0.55319578  0.44414273  0.17241790     0.09600
H330        H  0.55832907  0.61625716  0.18812406     0.07100
H331        H  0.69953194  0.52282769  0.23059474     0.06900
Zn332      Zn  0.75569766  0.79906898  0.29566551     1.49700
Zn333      Zn  0.71986333  0.72839742  0.18944020     1.49400
Zn334      Zn  0.64617850  0.72726921  0.29736437     1.49100
Zn335      Zn  0.65054270  0.83402255  0.22566077     1.49500
O336        O  0.69334712  0.77220028  0.25208230    -1.83300
O337        O  0.83017513  0.77732392  0.26276017    -0.73900
O338        O  0.69266524  0.65020846  0.19226926    -0.73700
O339        O  0.67987664  0.71645100  0.37166418    -0.73300
O340        O  0.80096957  0.72821767  0.19293386    -0.73900
O341        O  0.75297145  0.77016187  0.37326590    -0.73500
O342        O  0.63627360  0.65334186  0.26300649    -0.74100
O343        O  0.57161824  0.83259935  0.25093839    -0.73500
O344        O  0.69794211  0.75931963  0.11406173    -0.74300
O345        O  0.57141982  0.76170252  0.30650829    -0.73700
O346        O  0.65086986  0.82911286  0.14516648    -0.74100
O347        O  0.68285063  0.90850625  0.24799713    -0.74000
O348        O  0.75258915  0.88095231  0.29755895    -0.73800
C349        C  0.83985703  0.74828086  0.22084970     0.78000
C350        C  0.65734647  0.62802995  0.22300354     0.78500
C351        C  0.72119324  0.73613775  0.39612926     0.77400
C352        C  0.54750371  0.80221473  0.28514411     0.77800
C353        C  0.66921919  0.80133083  0.10543940     0.78900
C354        C  0.72420312  0.91917896  0.27739639     0.78000
Zn355      Zn  0.21893826  0.84971541  0.31342424     1.49700
Zn356      Zn  0.14658980  0.84809434  0.20481941     1.49400
Zn357      Zn  0.25627046  0.77865772  0.20841798     1.49100
Zn358      Zn  0.15054529  0.74219311  0.27750256     1.49500
O359        O  0.19333015  0.80478500  0.25119069    -1.83300
O360        O  0.19194654  0.92794268  0.30848952    -0.73900
O361        O  0.17917436  0.85523909  0.12956101    -0.73700
O362        O  0.33014038  0.79990705  0.24258311    -0.73300
O363        O  0.13749173  0.92333753  0.23650861    -0.73900
O364        O  0.30076832  0.84918433  0.31221339    -0.73500
O365        O  0.25456794  0.80576521  0.13028543    -0.74100
O366        O  0.18221702  0.66801827  0.25363128    -0.73500
O367        O  0.07171676  0.81388531  0.19765411    -0.74300
O368        O  0.25290637  0.69752863  0.20595641    -0.73700
O369        O  0.07154593  0.74353663  0.25385844    -0.74100
O370        O  0.15102531  0.74627979  0.35779196    -0.74000
O371        O  0.19490135  0.81887645  0.38838572    -0.73800
C372        C  0.15773208  0.94951608  0.27644993     0.78000
C373        C  0.22128178  0.83661043  0.10584699     0.78500
C374        C  0.33971684  0.82835929  0.28492509     0.77400
C375        C  0.22411766  0.65856605  0.22452431     0.77800
C376        C  0.04755304  0.77369182  0.21978213     0.78900
C377        C  0.16806946  0.77529597  0.39721822     0.78000
Zn378      Zn  0.22405373  0.24017717  0.22861662     1.49700
Zn379      Zn  0.11889249  0.27761531  0.29742137     1.49400
Zn380      Zn  0.22809941  0.34955454  0.29796751     1.49100
Zn381      Zn  0.15571300  0.34527960  0.19052085     1.49500
O382        O  0.18163328  0.30321830  0.25359139    -1.83300
O383        O  0.19286955  0.16637865  0.25412342    -0.73900
O384        O  0.12299393  0.30349336  0.37544040    -0.73700
O385        O  0.30471182  0.31918472  0.30273336    -0.73300
O386        O  0.12198482  0.19706011  0.30024706    -0.73900
O387        O  0.30263295  0.24372073  0.25292898    -0.73500
O388        O  0.19843739  0.35373919  0.37432478    -0.74100
O389        O  0.17959591  0.42474561  0.19324790    -0.73500
O390        O  0.04403466  0.29873949  0.26534580    -0.74300
O391        O  0.23139934  0.42597536  0.26714904    -0.73700
O392        O  0.07495478  0.34299648  0.19338433    -0.74100
O393        O  0.17980184  0.31303837  0.11623935    -0.74000
O394        O  0.22398258  0.24178357  0.14794042    -0.73800
C395        C  0.15068582  0.15767623  0.28303532     0.78000
C396        C  0.15733893  0.33409303  0.39919085     0.78500
C397        C  0.32788032  0.27709913  0.28341705     0.77400
C398        C  0.21084077  0.44977498  0.22616439     0.77800
C399        C  0.03535499  0.32494299  0.22165963     0.78900
C400        C  0.20705157  0.26985317  0.10806859     0.78000
C401        C  0.41550458  0.82797961  0.53411733    -0.20500
C402        C  0.45030867  0.86437608  0.56087384    -0.08500
C403        C  0.48434939  0.89893158  0.53069978     0.30300
C404        C  0.48345914  0.89664032  0.47394161    -0.20500
C405        C  0.44864778  0.85978629  0.44750074    -0.08500
C406        C  0.41480857  0.82541596  0.47799966     0.30400
F407        F  0.38305330  0.78730634  0.45352321    -0.19000
H408        H  0.39034721  0.79991918  0.55682869     0.18700
H409        H  0.50996450  0.92290251  0.45075928     0.18700
F410        F  0.51840163  0.93431196  0.55605494    -0.19000
C411        C  0.47118588  0.24803617  0.52860671    -0.20500
C412        C  0.43291724  0.21648260  0.55672470    -0.08500
C413        C  0.39439030  0.18577005  0.52765203     0.30300
C414        C  0.39361002  0.18795731  0.47094074    -0.20500
C415        C  0.43135778  0.22061884  0.44317139    -0.08500
C416        C  0.47043175  0.25033500  0.47251245     0.30400
F417        F  0.50592518  0.28431074  0.44717740    -0.19000
H418        H  0.50019964  0.27319644  0.55023789     0.18700
H419        H  0.36336388  0.16488936  0.44877951     0.18700
F420        F  0.35743172  0.15433945  0.55403863    -0.19000
C421        C  0.73109616  0.48997660  0.53925414    -0.20500
C422        C  0.76583397  0.46089757  0.50476106    -0.08500
C423        C  0.80228839  0.48917155  0.47093950     0.30300
C424        C  0.80245844  0.54599735  0.47074433    -0.20500
C425        C  0.76640888  0.57475686  0.50434517    -0.08500
C426        C  0.73105024  0.54616586  0.53895725     0.30400
F427        F  0.69362190  0.57240302  0.56984630    -0.19000
H428        H  0.70151002  0.46913115  0.56437823     0.18700
H429        H  0.82985503  0.56752726  0.44384104     0.18700
F430        F  0.83672828  0.46193224  0.43758646    -0.19000
C431        C  0.09560888  0.58534560  0.53744868    -0.20500
C432        C  0.13126066  0.61178951  0.50161138    -0.08500
C433        C  0.16292415  0.58133453  0.46521445     0.30300
C434        C  0.15916902  0.52532662  0.46498118    -0.20500
C435        C  0.12390847  0.49850648  0.50088424    -0.08500
C436        C  0.09173815  0.52879466  0.53704450     0.30400
F437        F  0.05687780  0.50382407  0.57180505    -0.19000
H438        H  0.07111075  0.60846925  0.56568447     0.18700
H439        H  0.18560776  0.50277691  0.43800490     0.18700
F440        F  0.19958885  0.60551291  0.43165651    -0.19000
C441        C  0.46468145  0.56662523  0.13829482    -0.20500
C442        C  0.49091901  0.53144604  0.17441352    -0.08500
C443        C  0.45993620  0.50020860  0.21081804     0.30300
C444        C  0.40387471  0.50425364  0.21126980    -0.20500
C445        C  0.37732488  0.53949602  0.17565664    -0.08500
C446        C  0.40795756  0.57060385  0.13876751     0.30400
F447        F  0.38314784  0.60473953  0.10364054    -0.19000
H448        H  0.48811932  0.59123465  0.11037835     0.18700
H449        H  0.38122000  0.48123859  0.24117419     0.18700
F450        F  0.48399224  0.46801206  0.24829881    -0.19000
C451        C  0.41191297  0.50245667  0.77988017    -0.20500
C452        C  0.38712550  0.53755055  0.81728994    -0.08500
C453        C  0.41914707  0.56773340  0.85367396     0.30300
C454        C  0.47562151  0.56277401  0.85222016    -0.20500
C455        C  0.50020312  0.52794755  0.81427156    -0.08500
C456        C  0.46789388  0.49776014  0.77812253     0.30400
F457        F  0.49047294  0.46622854  0.73883120    -0.19000
H458        H  0.38791204  0.48012799  0.75050058     0.18700
H459        H  0.50016676  0.58656214  0.87988757     0.18700
F460        F  0.39593323  0.60197448  0.89013596    -0.19000
C461        C  0.89505727  0.38828926  0.97130643    -0.20500
C462        C  0.93472752  0.35848216  0.94327354    -0.08500
C463        C  0.97418950  0.32973512  0.97246603     0.30300
C464        C  0.97330302  0.33017228  0.02858265    -0.20500
C465        C  0.93293482  0.35865494  0.05680477    -0.08500
C466        C  0.89398963  0.38831353  0.02794886     0.30400
F467        F  0.85460412  0.41631243  0.05442535    -0.19000
H468        H  0.86426734  0.41038055  0.94928909     0.18700
H469        H  0.00267657  0.30568984  0.05003152     0.18700
F470        F  0.01130217  0.29791439  0.94692752    -0.19000
C471        C  0.90938600  0.74181045  0.97293621    -0.20500
C472        C  0.95015569  0.71379963  0.94481750    -0.08500
C473        C  0.98971378  0.68517589  0.97416382     0.30300
C474        C  0.98832346  0.68538975  0.03091597    -0.20500
C475        C  0.94770758  0.71421459  0.05868953    -0.08500
C476        C  0.90813810  0.74232271  0.02904698     0.30400
F477        F  0.87030504  0.77359577  0.05416142    -0.19000
H478        H  0.87975434  0.76591704  0.95142372     0.18700
H479        H  0.01939382  0.66395546  0.05319549     0.18700
F480        F  0.02990668  0.65785303  0.94817016    -0.19000
C481        C  0.91751926  0.00658355  0.63466504    -0.20500
C482        C  0.88630946  0.03825427  0.67036864    -0.08500
C483        C  0.91223746  0.07419713  0.70655322     0.30300
C484        C  0.96829221  0.07782156  0.70749680    -0.20500
C485        C  0.99983211  0.04559506  0.67279725    -0.08500
C486        C  0.97425721  0.01030785  0.63572276     0.30400
F487        F  0.00402418  0.97923415  0.60126869    -0.19000
H488        H  0.89800877  0.97858480  0.60686332     0.18700
H489        H  0.98718518  0.10406423  0.73737697     0.18700
F490        F  0.88356711  0.10339343  0.74361906    -0.19000
C491        C  0.90556453  0.07473037  0.28485846    -0.20500
C492        C  0.87774387  0.04091514  0.32128784    -0.08500
C493        C  0.90723153  0.01052984  0.35934521     0.30300
C494        C  0.96402614  0.01341469  0.35979043    -0.20500
C495        C  0.99145623  0.04690682  0.32266241    -0.08500
C496        C  0.96168422  0.07776743  0.28537762     0.30400
F497        F  0.98699266  0.10862230  0.24722761    -0.19000
H498        H  0.88386791  0.09721393  0.25408647     0.18700
H499        H  0.98661314  0.98929207  0.38858654     0.18700
F500        F  0.88123708  0.97803149  0.39555176    -0.19000
C501        C  0.64674128  0.04953846  0.03657903    -0.20500
C502        C  0.60965749  0.07491414  0.00193958    -0.08500
C503        C  0.57672293  0.04299639  0.96760295     0.30300
C504        C  0.58144902  0.98640140  0.96807195    -0.20500
C505        C  0.61921257  0.96150932  0.00250510    -0.08500
C506        C  0.65185683  0.99363359  0.03666002     0.30400
F507        F  0.69138835  0.97127378  0.06764795    -0.19000
H508        H  0.67406394  0.07321296  0.06168244     0.18700
H509        H  0.55653392  0.96215577  0.94114031     0.18700
F510        F  0.54086256  0.06640816  0.93320299    -0.19000
C511        C  0.29992923  0.08666752  0.03197107    -0.20500
C512        C  0.26186422  0.11280708  0.99881288    -0.08500
C513        C  0.22602720  0.08188343  0.96679078     0.30300
C514        C  0.22791789  0.02583669  0.96828986    -0.20500
C515        C  0.26542648  0.99942263  0.00161554    -0.08500
C516        C  0.30180060  0.02994830  0.03333638     0.30400
F517        F  0.33873747  0.00499408  0.06539215    -0.19000
H518        H  0.32736338  0.11012162  0.05713637     0.18700
H519        H  0.19872216  0.00288076  0.94457954     0.18700
F520        F  0.18693230  0.10578029  0.93638338    -0.19000
loop_ 
_geom_bond_atom_site_label_1 
_geom_bond_atom_site_label_2 
_geom_bond_distance 
_geom_bond_site_symmetry_2 
_ccdc_geom_bond_type 
C1            C2   1.402       .  A
C1            C6   1.421   1_556  A
C1          C227   1.494       .  S
C2            C3   1.388   1_556  A
C2            H7   1.086       .  S
C3            C4   1.389       .  A
C3          C515   1.466       .  S
C4            C5   1.399       .  A
C4            H8   1.086       .  S
C5            C6   1.422       .  A
C5          C373   1.474       .  S
C6            H9   1.082       .  S
C10          C11   1.420       .  A
C10          C15   1.408       .  A
C10         C197   1.491       .  S
C11          C12   1.416   1_556  A
C11          H16   1.083       .  S
C12          C13   1.394       .  A
C12         C309   1.473       .  S
C13          C14   1.394   1_554  A
C13          H17   1.085       .  S
C14          C15   1.393       .  A
C14         C502   1.473   1_556  S
C15          H18   1.083       .  S
C19          C20   1.408       .  A
C19          C24   1.426   1_565  A
C19         C354   1.497       .  S
C20          C21   1.392   1_565  A
C20          H25   1.083       .  S
C21          C22   1.390       .  A
C21         C492   1.472       .  S
C22          C23   1.393       .  A
C22          H26   1.086       .  S
C23          C24   1.422       .  A
C23         C311   1.478       .  S
C24          H27   1.082       .  S
C28          C29   1.409       .  A
C28          C33   1.425   1_565  A
C28         C226   1.496       .  S
C29          C30   1.386   1_565  A
C29          H34   1.084       .  S
C30          C31   1.385       .  A
C30         C485   1.470   1_455  S
C31          C32   1.403       .  A
C31          H35   1.084       .  S
C32          C33   1.425       .  A
C32         C155   1.493       .  S
C33          H36   1.083       .  S
C37          C38   1.405       .  A
C37          C42   1.421       .  A
C37         C349   1.496       .  S
C38          C39   1.391       .  A
C38          H43   1.083       .  S
C39          C40   1.389       .  A
C39         C475   1.471       .  S
C40          C41   1.397       .  A
C40          H44   1.086   1_655  S
C41          C42   1.421       .  A
C41         C376   1.473   1_655  S
C42          H45   1.083       .  S
C46          C47   1.428       .  A
C46          C51   1.406       .  A
C46         C199   1.497       .  S
C47          C48   1.428       .  A
C47          H52   1.082       .  S
C48          C49   1.403       .  A
C48         C156   1.497   1_655  S
C49          C50   1.383       .  A
C49          H53   1.084   1_655  S
C50          C51   1.385       .  A
C50         C462   1.468       .  S
C51          H54   1.085       .  S
C55          C56   1.429       .  A
C55          C60   1.410       .  A
C55         C278   1.499       .  S
C56          C57   1.429   1_556  A
C56          H61   1.083       .  S
C57          C58   1.405       .  A
C57         C353   1.499       .  S
C58          C59   1.382       .  A
C58          H62   1.084       .  S
C59          C60   1.382   1_554  A
C59         C505   1.471       .  S
C60          H63   1.085       .  S
C64          C65   1.429       .  A
C64          C69   1.407       .  A
C64         C400   1.495       .  S
C65          C66   1.427   1_554  A
C65          H70   1.083       .  S
C66          C67   1.405       .  A
C66         C158   1.499       .  S
C67          C68   1.382   1_556  A
C67          H71   1.084       .  S
C68          C69   1.382       .  A
C68         C512   1.467   1_554  S
C69          H72   1.085       .  S
C73          C74   1.407       .  A
C73          C78   1.427   1_565  A
C73         C279   1.490       .  S
C74          C75   1.385   1_565  A
C74          H79   1.084       .  S
C75          C76   1.383       .  A
C75         C482   1.469       .  S
C76          C77   1.404       .  A
C76          H80   1.084       .  S
C77          C78   1.423       .  A
C77         C196   1.496       .  S
C78          H81   1.083       .  S
C82          C83   1.404       .  A
C82          C87   1.420       .  A
C82         C395   1.493       .  S
C83          C84   1.389       .  A
C83          H88   1.085       .  S
C84          C85   1.390       .  A
C84         C495   1.469   1_455  S
C85          C86   1.400       .  A
C85          H89   1.086   1_545  S
C86          C87   1.420       .  A
C86         C372   1.474   1_545  S
C87          H90   1.082       .  S
C91          C92   1.404       .  A
C91          C96   1.427       .  A
C91         C281   1.499       .  S
C92          C93   1.388       .  A
C92          H97   1.083       .  S
C93          C94   1.385   1_655  A
C93         C472   1.474       .  S
C94          C95   1.406       .  A
C94          H98   1.084       .  S
C95          C96   1.427   1_455  A
C95         C228   1.496       .  S
C96          H99   1.083       .  S
C100        C101   1.423       .  A
C100        C105   1.404       .  A
C100        C399   1.496   1_655  S
C101        C102   1.423       .  A
C101        H106   1.082       .  S
C102        C103   1.395       .  A
C102        C310   1.473       .  S
C103        C104   1.387       .  A
C103        H107   1.085       .  S
C104        C105   1.389       .  A
C104        C465   1.467       .  S
C105        H108   1.084   1_655  S
C109        C110   1.420       .  A
C109        C114   1.399       .  A
C109        C229   1.474       .  S
C110        C111   1.417       .  A
C110        H115   1.083       .  S
C111        C112   1.393       .  A
C111        C157   1.474       .  S
C112        C113   1.390       .  A
C112        H116   1.087       .  S
C113        C114   1.393       .  A
C113        C452   1.465       .  S
C114        H117   1.086       .  S
C118        C119   1.424       .  A
C118        C123   1.410       .  A
C118        C375   1.495       .  S
C119        C120   1.420       .  A
C119        H124   1.082       .  S
C120        C121   1.393       .  A
C120        C398   1.475       .  S
C121        C122   1.389       .  A
C121        H125   1.086       .  S
C122        C123   1.392       .  A
C122        C445   1.471       .  S
C123        H126   1.083       .  S
C127        C128   1.416       .  A
C127        C132   1.398       .  A
C127        C154   1.469       .  S
C128        C129   1.414       .  A
C128        H133   1.084       .  S
C129        C130   1.392       .  A
C129        C396   1.467       .  S
C130        C131   1.392       .  A
C130        H134   1.086       .  S
C131        C132   1.393       .  A
C131        C435   1.467       .  S
C132        H135   1.086       .  S
Zn136       O140   1.972       .  S
Zn136       O141   2.024       .  S
Zn136       O145   2.065       .  S
Zn136       O152   1.977       .  S
Zn137       O140   1.941       .  S
Zn137       O142   2.013       .  S
Zn137       O144   2.034       .  S
Zn137       O148   2.021       .  S
Zn138       O140   1.980       .  S
Zn138       O143   1.991       .  S
Zn138       O146   2.032       .  S
Zn138       O149   2.072       .  S
Zn139       O140   1.986       .  S
Zn139       O147   1.998       .  S
Zn139       O150   2.048       .  S
Zn139       O151   2.091       .  S
O141        C153   1.271       .  A
O142        C154   1.274       .  A
O143        C155   1.275       .  A
O144        C153   1.276       .  A
O145        C155   1.274       .  A
O146        C154   1.273       .  A
O147        C156   1.278       .  A
O148        C157   1.276       .  A
O149        C156   1.275       .  A
O150        C157   1.274       .  A
O151        C158   1.277       .  A
O152        C158   1.274       .  A
C153        C168   1.473       .  S
C159        C160   1.410       .  A
C159        C164   1.426       .  A
C159        C313   1.501       .  S
C160        C161   1.392       .  A
C160        H165   1.083       .  S
C161        C162   1.388       .  A
C161        C422   1.472       .  S
C162        C163   1.392       .  A
C162        H166   1.087       .  S
C163        C164   1.423       .  A
C163        C194   1.476       .  S
C164        H167   1.082       .  S
C168        C169   1.417       .  A
C168        C173   1.399       .  A
C169        C170   1.416       .  A
C169        H174   1.083       .  S
C170        C171   1.394       .  A
C170        C195   1.471       .  S
C171        C172   1.393       .  A
C171        H175   1.087       .  S
C172        C173   1.394       .  A
C172        C412   1.469       .  S
C173        H176   1.086       .  S
Zn177       O181   1.967       .  S
Zn177       O182   2.031       .  S
Zn177       O186   1.975       .  S
Zn177       O193   2.081       .  S
Zn178       O181   1.947       .  S
Zn178       O183   2.029       .  S
Zn178       O185   2.048       .  S
Zn178       O189   2.041       .  S
Zn179       O181   1.989       .  S
Zn179       O184   2.083       .  S
Zn179       O187   2.036       .  S
Zn179       O190   1.997       .  S
Zn180       O181   1.967       .  S
Zn180       O188   2.066       .  S
Zn180       O191   2.037       .  S
Zn180       O192   1.993       .  S
O182        C194   1.274       .  A
O183        C195   1.275       .  A
O184        C196   1.276       .  A
O185        C194   1.277       .  A
O186        C196   1.274       .  A
O187        C195   1.274       .  A
O188        C197   1.277       .  A
O189        C198   1.277       .  A
O190        C197   1.275       .  A
O191        C198   1.274       .  A
O192        C199   1.275       .  A
O193        C199   1.276       .  A
C198        C232   1.476       .  S
C200        C201   1.404       .  A
C200        C205   1.423       .  A
C200        C377   1.495       .  S
C201        C202   1.386       .  A
C201        H206   1.084       .  S
C202        C203   1.385       .  A
C202        C432   1.465       .  S
C203        C204   1.396       .  A
C203        H207   1.085       .  S
C204        C205   1.423       .  A
C204        C231   1.471       .  S
C205        H208   1.082       .  S
Zn209       O213   1.979       .  S
Zn209       O214   1.980       .  S
Zn209       O218   2.078       .  S
Zn209       O225   2.029       .  S
Zn210       O213   1.979       .  S
Zn210       O215   1.995       .  S
Zn210       O217   2.090       .  S
Zn210       O221   2.050       .  S
Zn211       O213   1.974       .  S
Zn211       O216   1.987       .  S
Zn211       O219   2.068       .  S
Zn211       O222   2.033       .  S
Zn212       O213   1.946       .  S
Zn212       O220   2.031       .  S
Zn212       O223   2.023       .  S
Zn212       O224   2.030       .  S
O214        C226   1.273       .  A
O215        C227   1.276       .  A
O216        C228   1.275       .  A
O217        C226   1.278       .  A
O218        C228   1.276       .  A
O219        C227   1.276       .  A
O220        C229   1.275       .  A
O221        C230   1.276       .  A
O222        C229   1.273       .  A
O223        C230   1.274       .  A
O224        C231   1.276       .  A
O225        C231   1.273       .  A
C230        C241   1.474       .  S
C232        C233   1.394       .  A
C232        C237   1.421       .  A
C233        C234   1.392       .  A
C233        H238   1.085       .  S
C234        C235   1.391       .  A
C234        C455   1.465       .  S
C235        C236   1.397       .  A
C235        H239   1.087       .  S
C236        C237   1.422       .  A
C236        C276   1.478       .  S
C237        H240   1.083       .  S
C241        C242   1.418       .  A
C241        C246   1.395       .  A
C242        C243   1.419       .  A
C242        H247   1.084       .  S
C243        C244   1.398       .  A
C243        C277   1.476       .  S
C244        C245   1.392       .  A
C244        H248   1.086       .  S
C245        C246   1.393       .  A
C245        C402   1.465       .  S
C246        H249   1.086       .  S
C250        C251   1.402       .  A
C250        C255   1.415       .  A
C250        C351   1.476       .  S
C251        C252   1.397       .  A
C251        H256   1.086       .  S
C252        C253   1.395       .  A
C252        C425   1.471       .  S
C253        C254   1.394       .  A
C253        H257   1.085       .  S
C254        C255   1.413       .  A
C254        C280   1.471       .  S
C255        H258   1.083       .  S
Zn259       O263   1.987       .  S
Zn259       O264   2.054       .  S
Zn259       O268   2.097       .  S
Zn259       O275   2.007       .  S
Zn260       O263   1.948       .  S
Zn260       O265   2.044       .  S
Zn260       O267   2.032       .  S
Zn260       O271   2.026       .  S
Zn261       O263   1.970       .  S
Zn261       O266   1.974       .  S
Zn261       O269   2.025       .  S
Zn261       O272   2.057       .  S
Zn262       O263   1.984       .  S
Zn262       O270   1.999       .  S
Zn262       O273   2.035       .  S
Zn262       O274   2.073       .  S
O264        C276   1.276       .  A
O265        C277   1.277       .  A
O266        C278   1.273       .  A
O267        C276   1.277       .  A
O268        C278   1.278       .  A
O269        C277   1.270       .  A
O270        C279   1.276       .  A
O271        C280   1.275       .  A
O272        C279   1.274       .  A
O273        C280   1.273       .  A
O274        C281   1.276       .  A
O275        C281   1.278       .  A
C282        C283   1.421       .  A
C282        C287   1.403       .  A
C282        C312   1.493       .  S
C283        C284   1.420       .  A
C283        H288   1.082       .  S
C284        C285   1.399       .  A
C284        C397   1.473       .  S
C285        C286   1.390       .  A
C285        H289   1.086       .  S
C286        C287   1.389       .  A
C286        C415   1.469       .  S
C287        H290   1.084       .  S
Zn291       O295   1.980       .  S
Zn291       O296   2.076       .  S
Zn291       O300   2.030       .  S
Zn291       O307   2.000       .  S
Zn292       O295   1.983       .  S
Zn292       O297   2.033       .  S
Zn292       O299   1.994       .  S
Zn292       O303   2.064       .  S
Zn293       O295   1.953       .  S
Zn293       O298   2.038       .  S
Zn293       O301   2.036       .  S
Zn293       O304   2.038       .  S
Zn294       O295   1.979       .  S
Zn294       O302   2.046       .  S
Zn294       O305   1.996       .  S
Zn294       O306   2.089       .  S
O296        C308   1.277       .  A
O297        C309   1.273       .  A
O298        C310   1.277       .  A
O299        C308   1.275       .  A
O300        C310   1.273       .  A
O301        C309   1.276       .  A
O302        C311   1.275       .  A
O303        C312   1.275       .  A
O304        C311   1.277       .  A
O305        C312   1.276       .  A
O306        C313   1.278       .  A
O307        C313   1.275       .  A
C308        C323   1.494       .  S
C314        C315   1.423       .  A
C314        C319   1.397       .  A
C314        C352   1.478       .  S
C315        C316   1.424       .  A
C315        H320   1.083       .  S
C316        C317   1.404       .  A
C316        C374   1.498       .  S
C317        C318   1.391       .  A
C317        H321   1.084       .  S
C318        C319   1.388       .  A
C318        C405   1.465       .  S
C319        H322   1.087       .  S
C323        C324   1.406       .  A
C323        C328   1.419       .  A
C324        C325   1.392       .  A
C324        H329   1.083       .  S
C325        C326   1.389       .  A
C325        C442   1.471       .  S
C326        C327   1.398       .  A
C326        H330   1.086       .  S
C327        C328   1.419       .  A
C327        C350   1.471       .  S
C328        H331   1.083       .  S
Zn332       O336   1.984       .  S
Zn332       O337   2.075       .  S
Zn332       O341   2.043       .  S
Zn332       O348   2.019       .  S
Zn333       O336   1.990       .  S
Zn333       O338   2.037       .  S
Zn333       O340   1.998       .  S
Zn333       O344   2.083       .  S
Zn334       O336   1.951       .  S
Zn334       O339   2.030       .  S
Zn334       O342   2.019       .  S
Zn334       O345   2.042       .  S
Zn335       O336   1.970       .  S
Zn335       O343   2.039       .  S
Zn335       O346   1.986       .  S
Zn335       O347   2.069       .  S
O337        C349   1.277       .  A
O338        C350   1.273       .  A
O339        C351   1.276       .  A
O340        C349   1.276       .  A
O341        C351   1.275       .  A
O342        C350   1.275       .  A
O343        C352   1.273       .  A
O344        C353   1.275       .  A
O345        C352   1.277       .  A
O346        C353   1.275       .  A
O347        C354   1.276       .  A
O348        C354   1.278       .  A
Zn355       O359   1.989       .  S
Zn355       O360   2.046       .  S
Zn355       O364   2.014       .  S
Zn355       O371   2.082       .  S
Zn356       O359   1.948       .  S
Zn356       O361   2.026       .  S
Zn356       O363   2.022       .  S
Zn356       O367   2.030       .  S
Zn357       O359   1.980       .  S
Zn357       O362   2.069       .  S
Zn357       O365   2.040       .  S
Zn357       O368   2.000       .  S
Zn358       O359   1.973       .  S
Zn358       O366   2.073       .  S
Zn358       O369   2.032       .  S
Zn358       O370   1.980       .  S
O360        C372   1.275       .  A
O361        C373   1.275       .  A
O362        C374   1.276       .  A
O363        C372   1.275       .  A
O364        C374   1.278       .  A
O365        C373   1.274       .  A
O366        C375   1.277       .  A
O367        C376   1.275       .  A
O368        C375   1.275       .  A
O369        C376   1.272       .  A
O370        C377   1.274       .  A
O371        C377   1.276       .  A
Zn378       O382   1.972       .  S
Zn378       O383   2.068       .  S
Zn378       O387   2.027       .  S
Zn378       O394   1.988       .  S
Zn379       O382   1.983       .  S
Zn379       O384   2.025       .  S
Zn379       O386   1.988       .  S
Zn379       O390   2.076       .  S
Zn380       O382   1.946       .  S
Zn380       O385   2.036       .  S
Zn380       O388   2.018       .  S
Zn380       O391   2.033       .  S
Zn381       O382   1.979       .  S
Zn381       O389   2.042       .  S
Zn381       O392   1.989       .  S
Zn381       O393   2.078       .  S
O383        C395   1.275       .  A
O384        C396   1.272       .  A
O385        C397   1.276       .  A
O386        C395   1.274       .  A
O387        C397   1.272       .  A
O388        C396   1.275       .  A
O389        C398   1.274       .  A
O390        C399   1.276       .  A
O391        C398   1.276       .  A
O392        C399   1.275       .  A
O393        C400   1.276       .  A
O394        C400   1.275       .  A
C401        C402   1.401       .  A
C401        C406   1.384       .  A
C401        H408   1.082       .  S
C402        C403   1.404       .  A
C403        C404   1.399       .  A
C403        F410   1.357       .  S
C404        C405   1.404       .  A
C404        H409   1.080       .  S
C405        C406   1.403       .  A
C406        F407   1.358       .  S
C411        C412   1.401       .  A
C411        C416   1.383       .  A
C411        H418   1.083       .  S
C412        C413   1.406       .  A
C413        C414   1.398       .  A
C413        F420   1.357       .  S
C414        C415   1.404       .  A
C414        H419   1.082       .  S
C415        C416   1.405       .  A
C416        F417   1.359       .  S
C421        C422   1.402       .  A
C421        C426   1.384       .  A
C421        H428   1.083       .  S
C422        C423   1.406       .  A
C423        C424   1.400       .  A
C423        F430   1.357       .  S
C424        C425   1.405       .  A
C424        H429   1.082       .  S
C425        C426   1.405       .  A
C426        F427   1.358       .  S
C431        C432   1.403       .  A
C431        C436   1.396       .  A
C431        H438   1.082       .  S
C432        C433   1.404       .  A
C433        C434   1.382       .  A
C433        F440   1.359       .  S
C434        C435   1.402       .  A
C434        H439   1.083       .  S
C435        C436   1.405       .  A
C436        F437   1.357       .  S
C441        C442   1.405       .  A
C441        C446   1.400       .  A
C441        H448   1.082       .  S
C442        C443   1.405       .  A
C443        C444   1.384       .  A
C443        F450   1.358       .  S
C444        C445   1.402       .  A
C444        H449   1.083       .  S
C445        C446   1.406       .  A
C446        F447   1.357       .  S
C451        C452   1.402       .  A
C451        C456   1.384       .  A
C451        H458   1.082       .  S
C452        C453   1.403       .  A
C453        C454   1.396       .  A
C453        F460   1.357       .  S
C454        C455   1.405       .  A
C454        H459   1.081       .  S
C455        C456   1.404       .  A
C456        F457   1.359       .  S
C461        C462   1.404       .  A
C461        C466   1.395   1_556  A
C461        H468   1.083       .  S
C462        C463   1.406       .  A
C463        C464   1.382   1_556  A
C463        F470   1.359   1_655  S
C464        C465   1.401       .  A
C464        H469   1.084   1_655  S
C465        C466   1.405       .  A
C466        F467   1.357       .  S
C471        C472   1.401       .  A
C471        C476   1.382   1_556  A
C471        H478   1.084       .  S
C472        C473   1.408       .  A
C473        C474   1.398   1_556  A
C473        F480   1.357   1_655  S
C474        C475   1.404       .  A
C474        H479   1.083   1_655  S
C475        C476   1.406       .  A
C476        F477   1.358       .  S
C481        C482   1.404       .  A
C481        C486   1.399       .  A
C481        H488   1.082   1_545  S
C482        C483   1.406       .  A
C483        C484   1.382       .  A
C483        F490   1.359       .  S
C484        C485   1.401       .  A
C484        H489   1.082       .  S
C485        C486   1.406       .  A
C486        F487   1.357   1_645  S
C491        C492   1.401       .  A
C491        C496   1.383       .  A
C491        H498   1.084       .  S
C492        C493   1.407       .  A
C493        C494   1.399       .  A
C493        F500   1.357   1_545  S
C494        C495   1.403       .  A
C494        H499   1.084   1_545  S
C495        C496   1.405       .  A
C496        F497   1.359       .  S
C501        C502   1.402       .  A
C501        C506   1.384   1_545  A
C501        H508   1.081       .  S
C502        C503   1.408   1_554  A
C503        C504   1.400   1_545  A
C503        F510   1.357       .  S
C504        C505   1.405   1_556  A
C504        H509   1.081       .  S
C505        C506   1.404       .  A
C506        F507   1.358       .  S
C511        C512   1.405   1_554  A
C511        C516   1.399       .  A
C511        H518   1.081       .  S
C512        C513   1.404       .  A
C513        C514   1.382       .  A
C513        F520   1.359       .  S
C514        C515   1.401   1_546  A
C514        H519   1.083       .  S
C515        C516   1.403   1_565  A
C516        F517   1.357       .  S
