geometry optimzed in LAMMPS
_audit_creation_date              2020-11-30 
_audit_creation_method            'lammps2cif' 
_symmetry_space_group_name_H-M    'P1' 
_symmetry_Int_Tables_number       1 
_symmetry_cell_setting            triclinic 
loop_ 
_symmetry_equiv_pos_as_xyz 
  x,y,z 
_cell_length_a                    26.04207547 
_cell_length_b                    26.02261629606212 
_cell_length_c                    26.10846395217621 
_cell_angle_alpha                 89.3202531963771 
_cell_angle_beta                  89.70130958753654 
_cell_angle_gamma                 90.04968967417163 
loop_ 
_atom_site_label 
_atom_site_type_symbol 
_atom_site_fract_x 
_atom_site_fract_y 
_atom_site_fract_z 
_atom_site_charge 
C1          C  0.86583755  0.87407576  0.86967429    -0.03100
N2          N  0.76491003  0.92805280  0.41026976    -0.06700
N3          N  0.72559982  0.93964586  0.44093219    -0.58800
N4          N  0.81804126  0.96617735  0.29976812    -0.06400
N5          N  0.82012744  0.99816869  0.26078269    -0.61000
N6          N  0.78311709  0.93057960  0.29292564    -0.06000
N7          N  0.76098726  0.93724003  0.24849618    -0.58800
N8          N  0.80204633  0.96177718  0.41578414    -0.05700
N9          N  0.78896720  0.99631408  0.45023814    -0.61300
C10         C  0.74125628  0.98239606  0.46618088     0.95500
C11         C  0.78449802  0.97950208  0.22913485     0.95200
N12         N  0.97055884  0.93608575  0.30826083    -0.06900
N13         N  0.00817051  0.94945860  0.27626591    -0.59400
N14         N  0.92232887  0.95550981  0.42417172    -0.05000
N15         N  0.93196129  0.98873181  0.45997002    -0.60700
N16         N  0.95768724  0.91953476  0.42325435    -0.06900
N17         N  0.99237400  0.92704441  0.45834116    -0.59700
N18         N  0.93503530  0.97178072  0.30897410    -0.04700
N19         N  0.94765117  0.01020548  0.27747468    -0.60700
Mn20       Mn  0.86890705  0.96523689  0.36281938     1.18400
C21         C  0.99324534  0.99567725  0.25687749     0.97500
C22         C  0.97521734  0.96985054  0.48059837     0.98200
N23         N  0.77137120  0.81032145  0.28722467    -0.06900
N24         N  0.73275670  0.79695195  0.25719121    -0.63300
N25         N  0.80494285  0.76961889  0.40111158    -0.05700
N26         N  0.79552990  0.73435267  0.43615472    -0.63900
N27         N  0.76939021  0.80566502  0.40180485    -0.06500
N28         N  0.73483007  0.79591022  0.43718301    -0.63500
N29         N  0.80764710  0.77522059  0.28592630    -0.05300
N30         N  0.79453466  0.73782208  0.25458643    -0.64200
Mn31       Mn  0.77027462  0.86920066  0.34807958     1.10700
C32         C  0.74782582  0.75179767  0.23650254     0.98800
C33         C  0.75190878  0.75159777  0.45771402     0.98800
N34         N  0.96167401  0.80055989  0.41310163    -0.06500
N35         N  0.99520657  0.78723749  0.44882558    -0.61800
N36         N  0.92792966  0.78493086  0.28993758    -0.05800
N37         N  0.93390637  0.76371830  0.24508561    -0.58600
N38         N  0.96372677  0.81957486  0.29692053    -0.07100
N39         N  0.99498921  0.82259503  0.25765436    -0.61400
N40         N  0.92719551  0.76416754  0.40748699    -0.06100
N41         N  0.93724355  0.72500849  0.43914926    -0.58600
Mn42       Mn  0.96479930  0.86841535  0.36086369     1.20200
Mn43       Mn  0.86747743  0.77149211  0.34601703     1.10100
Cl44       Cl  0.86761108  0.86835476  0.35507357    -0.86600
C45         C  0.97980682  0.74001004  0.46517502     0.95800
C46         C  0.97591897  0.78762018  0.22567226     0.95600
N47         N  0.95750484  0.43080831  0.92170732    -0.06700
N48         N  0.99538686  0.46033503  0.93537166    -0.58800
N49         N  0.93605757  0.31533599  0.96656915    -0.06400
N50         N  0.94939602  0.28438514  0.00480421    -0.61000
N51         N  0.97144183  0.31589206  0.93053060    -0.06000
N52         N  0.00965659  0.28480344  0.94364914    -0.58800
N53         N  0.92158059  0.42916659  0.95742961    -0.05700
N54         N  0.93429367  0.45746333  0.99641210    -0.61300
C55         C  0.97997982  0.47600274  0.98151646     0.95500
C56         C  0.99539775  0.26529636  0.99018716     0.95200
N57         N  0.78600657  0.29458377  0.92587021    -0.06900
N58         N  0.76191454  0.25102656  0.93341561    -0.59400
N59         N  0.80093794  0.41737818  0.96281386    -0.05000
N60         N  0.78616427  0.45100299  0.99769790    -0.60700
N61         N  0.76487114  0.41136325  0.92839855    -0.06900
N62         N  0.72493710  0.44115300  0.93900252    -0.59700
N63         N  0.82009396  0.30158150  0.96188004    -0.04700
N64         N  0.81985648  0.26350563  0.99504310    -0.60700
Mn65       Mn  0.86919532  0.36657265  0.96320907     1.18400
C66         C  0.78359805  0.23226545  0.97659895     0.97500
C67         C  0.73877478  0.46589970  0.98226444     0.98200
N68         N  0.96783525  0.31265785  0.81045633    -0.06900
N69         N  0.00252191  0.27649214  0.80615634    -0.63300
N70         N  0.92837370  0.42595734  0.76519940    -0.05700
N71         N  0.93931002  0.45789519  0.72644847    -0.63900
N72         N  0.96343483  0.43002148  0.80104067    -0.06500
N73         N  0.99833725  0.46504309  0.78742826    -0.63500
N74         N  0.93178268  0.30785116  0.77583046    -0.05300
N75         N  0.94041136  0.26750206  0.74767478    -0.64200
Mn76       Mn  0.96627301  0.37261151  0.86561364     1.10700
C77         C  0.98407277  0.24835914  0.76763474     0.98800
C78         C  0.98259648  0.48305885  0.74102261     0.98800
N79         N  0.77035190  0.41144908  0.80977895    -0.06500
N80         N  0.73747662  0.44944659  0.80716851    -0.61800
N81         N  0.81135219  0.29848756  0.76914111    -0.05800
N82         N  0.80010948  0.26647081  0.73151446    -0.58600
N83         N  0.77677068  0.29434268  0.80583208    -0.07100
N84         N  0.74167451  0.25953371  0.79380690    -0.61400
N85         N  0.80670293  0.41669175  0.77491685    -0.06100
N86         N  0.79974261  0.45891878  0.74808158    -0.58600
Mn87       Mn  0.77262811  0.35230380  0.86748725     1.20200
Mn88       Mn  0.86947851  0.36234481  0.76918229     1.10100
Cl89       Cl  0.86940979  0.36377716  0.86616783    -0.86600
C90         C  0.75703323  0.47889043  0.76931255     0.95800
C91         C  0.75712838  0.24131927  0.74777359     0.95600
N92         N  0.41266415  0.76428057  0.92943913    -0.06700
N93         N  0.44360167  0.72518562  0.94025164    -0.58800
N94         N  0.30167191  0.81895949  0.95850295    -0.06400
N95         N  0.26119237  0.82135168  0.98818246    -0.61000
N96         N  0.29580428  0.78452588  0.92278856    -0.06000
N97         N  0.25075604  0.76257345  0.92737995    -0.58800
N98         N  0.41821113  0.80080480  0.96325143    -0.05700
N99         N  0.45312997  0.78733111  0.99763566    -0.61300
C100        C  0.46886110  0.73993744  0.98296168     0.95500
C101        C  0.22991907  0.78582428  0.96855829     0.95200
N102        N  0.31590495  0.97053159  0.92891346    -0.06900
N103        N  0.28473213  0.00886527  0.94114307    -0.59400
N104        N  0.42830125  0.92213166  0.95920994    -0.05000
N105        N  0.45416240  0.93630378  0.99947515    -0.60700
N106        N  0.43079621  0.95771127  0.92294615    -0.06900
N107        N  0.45832065  0.99675929  0.93746605    -0.59700
N108        N  0.31321761  0.93409806  0.96394405    -0.04700
N109        N  0.27984479  0.94629739  0.00019913    -0.60700
Mn110      Mn  0.36615226  0.86829950  0.96247874     1.18400
C111        C  0.26183684  0.99294230  0.98552559     0.97500
C112        C  0.47198317  0.98249613  0.98475740     0.98200
N113        N  0.29933097  0.77350432  0.80301937    -0.06900
N114        N  0.26602993  0.73727581  0.79013405    -0.63300
N115        N  0.42185498  0.80614165  0.77607551    -0.05700
N116        N  0.46490720  0.79989332  0.75070403    -0.63900
N117        N  0.41639454  0.76976813  0.81113445    -0.06500
N118        N  0.45509332  0.73765537  0.81008573    -0.63500
N119        N  0.30380952  0.80792342  0.76602208    -0.05300
N120        N  0.27354877  0.79527405  0.72719925    -0.64200
Mn121      Mn  0.35538118  0.77102113  0.86679280     1.10700
C122        C  0.24943899  0.75120206  0.74276609     0.98800
C123        C  0.48517891  0.75752404  0.77291390     0.98800
N124        N  0.43121430  0.96286003  0.80269502    -0.06500
N125        N  0.46597626  0.99830075  0.79058366    -0.61800
N126        N  0.30982209  0.92913038  0.77614877    -0.05800
N127        N  0.26556694  0.93434325  0.75300486    -0.58600
N128        N  0.31446796  0.96440290  0.81139218    -0.07100
N129        N  0.27434705  0.99438825  0.81301295    -0.61400
N130        N  0.42925903  0.92765764  0.76703095    -0.06100
N131        N  0.46334865  0.93854754  0.73023773    -0.58600
Mn132      Mn  0.37368355  0.96500183  0.86581630     1.20200
Mn133      Mn  0.36629468  0.86795786  0.76864227     1.10100
Cl134      Cl  0.36587320  0.86800816  0.86572116    -0.86600
C135        C  0.48656379  0.98271003  0.74551597     0.95800
C136        C  0.24416138  0.97495671  0.77687051     0.95600
C137        C  0.36761337  0.36849335  0.87107354    -0.03100
C138        C  0.37486092  0.87181324  0.37120933    -0.03100
C139        C  0.87479366  0.37322774  0.37316824    -0.03100
N140        N  0.20714927  0.05760959  0.68618205    -0.06700
N141        N  0.23339200  0.05089674  0.72825119    -0.58800
N142        N  0.18668007  0.01601370  0.56658922    -0.06400
N143        N  0.20038368  0.97975729  0.53393238    -0.61000
N144        N  0.22290003  0.05109461  0.56933754    -0.06000
N145        N  0.26136751  0.03979500  0.53802156    -0.58800
N146        N  0.17240827  0.02138651  0.68210414    -0.05700
N147        N  0.17429177  0.98894126  0.72065506    -0.61300
C148        C  0.21212404  0.00818598  0.74912987     0.95500
C149        C  0.24698409  0.99525452  0.51577716     0.95200
N150        N  0.02944649  0.05754471  0.55950246    -0.06900
N151        N  0.99156331  0.04530076  0.52950172    -0.59400
N152        N  0.05584516  0.01819177  0.67586252    -0.05000
N153        N  0.04307583  0.98210058  0.70973513    -0.60700
N154        N  0.02087034  0.05451967  0.67452745    -0.06900
N155        N  0.98325795  0.04360497  0.70730754    -0.59700
N156        N  0.06446836  0.02113231  0.56074625    -0.04700
N157        N  0.05115233  0.98281978  0.53161600    -0.60700
Mn158      Mn  0.12027049  0.01775458  0.62058215     1.18400
C159        C  0.00600125  0.99907553  0.51294895     0.97500
C160        C  0.99805320  0.99869389  0.72959691     0.98200
N161        N  0.22092409  0.16997191  0.56489997    -0.06900
N162        N  0.25436128  0.17356214  0.52726385    -0.63300
N163        N  0.18316509  0.21493635  0.67796402    -0.05700
N164        N  0.19392897  0.25323024  0.70938397    -0.63900
N165        N  0.21840180  0.17897068  0.68148182    -0.06500
N166        N  0.25419756  0.19265349  0.71471815    -0.63500
N167        N  0.18468686  0.20478212  0.56008756    -0.05300
N168        N  0.19208499  0.23242396  0.51848274    -0.64200
Mn169      Mn  0.21928759  0.11422891  0.62607352     1.10700
C170        C  0.23511218  0.21198111  0.49836990     0.98800
C171        C  0.23827472  0.23887917  0.73266883     0.98800
N172        N  0.02762157  0.17364820  0.67257681    -0.06500
N173        N  0.99598622  0.17786614  0.71137691    -0.61800
N174        N  0.06393736  0.21293788  0.55531063    -0.05800
N175        N  0.05360214  0.24948095  0.52092164    -0.58600
N176        N  0.02766341  0.17778022  0.55516433    -0.07100
N177        N  0.99213716  0.18986594  0.52083227    -0.61400
N178        N  0.06377613  0.20873759  0.67402168    -0.06100
N179        N  0.05799587  0.23747274  0.71452744    -0.58600
Mn180      Mn  0.02510722  0.11631956  0.61518296     1.20200
Mn181      Mn  0.12381973  0.21238550  0.61657250     1.10100
Cl182      Cl  0.12219235  0.11523508  0.61923414    -0.86600
C183        C  0.01596527  0.21717247  0.73739299     0.95800
C184        C  0.00919269  0.23415870  0.49862394     0.95600
N185        N  0.05873339  0.69457267  0.19863080    -0.06700
N186        N  0.05233722  0.73942617  0.21986350    -0.58800
N187        N  0.02454242  0.57102303  0.18463015    -0.06400
N188        N  0.98957182  0.53667575  0.19915103    -0.61000
N189        N  0.05970187  0.57604306  0.22020833    -0.06000
N190        N  0.04913029  0.54449204  0.25953093    -0.58800
N191        N  0.02315474  0.68712827  0.16417504    -0.05700
N192        N  0.99144385  0.72599889  0.16143497    -0.61300
C193        C  0.01021098  0.75830370  0.19626785     0.95500
C194        C  0.00517299  0.51962779  0.24585863     0.95200
N195        N  0.06667650  0.55810292  0.03031235    -0.06900
N196        N  0.05633405  0.52369459  0.99600700    -0.59400
N197        N  0.01850279  0.67467910  0.04804775    -0.05000
N198        N  0.98219816  0.70809770  0.03540199    -0.60700
N199        N  0.05359807  0.67292455  0.01190742    -0.06900
N200        N  0.04167257  0.70480795  0.97370353    -0.59700
N201        N  0.03063696  0.55935763  0.06572495    -0.04700
N202        N  0.99462526  0.52582071  0.05645578    -0.60700
Mn203      Mn  0.02286817  0.62257837  0.11606495     1.18400
C204        C  0.01181171  0.50433493  0.01330074     0.97500
C205        C  0.99689635  0.72681760  0.98878362     0.98200
N206        N  0.18235301  0.58524126  0.21467881    -0.06900
N207        N  0.19299299  0.55232383  0.25144236    -0.63300
N208        N  0.21532116  0.69969715  0.17262906    -0.05700
N209        N  0.25342848  0.73097604  0.18537237    -0.63900
N210        N  0.17902789  0.70087857  0.20791585    -0.06500
N211        N  0.19174672  0.73338918  0.24463066    -0.63500
N212        N  0.21806970  0.58455855  0.17868958    -0.05300
N213        N  0.25399178  0.55130886  0.19000372    -0.64200
Mn214      Mn  0.11941951  0.63915838  0.21224474     1.10700
C215        C  0.23753950  0.53210424  0.23513977     0.98800
C216        C  0.23813641  0.75263146  0.23007112     0.98800
N217        N  0.17004187  0.68288645  0.01642948    -0.06500
N218        N  0.16686352  0.72172517  0.98433008    -0.61800
N219        N  0.22302422  0.57259927  0.05614460    -0.05800
N220        N  0.26186310  0.54100729  0.04545149    -0.58600
N221        N  0.18614128  0.56619429  0.02255652    -0.07100
N222        N  0.19891101  0.53033266  0.98905046    -0.61400
N223        N  0.20446915  0.69118029  0.05188324    -0.06100
N224        N  0.22524836  0.73653629  0.04492600    -0.58600
Mn225      Mn  0.11957382  0.61935595  0.01905648     1.20200
Mn226      Mn  0.21721744  0.63702325  0.11425244     1.10100
Cl227      Cl  0.12007826  0.62892864  0.11572235    -0.86600
C228        C  0.20129990  0.75488869  0.00273392     0.95800
C229        C  0.24604273  0.51406367  0.00380441     0.95600
N230        N  0.66869658  0.05509477  0.01792718    -0.06700
N231        N  0.69905315  0.04179282  0.97948579    -0.58800
N232        N  0.55462679  0.03313977  0.06946552    -0.06400
N233        N  0.52056674  0.99762478  0.06032549    -0.61000
N234        N  0.55399513  0.06920965  0.03378293    -0.06000
N235        N  0.51945485  0.05923239  0.99928386    -0.58800
N236        N  0.66845136  0.01896472  0.05328260    -0.05700
N237        N  0.69814142  0.98010578  0.03967503    -0.61300
C238        C  0.71727656  0.99482092  0.99347896     0.95500
C239        C  0.49932275  0.01496748  0.01689186     0.95200
N240        N  0.57222512  0.05929192  0.22334624    -0.06900
N241        N  0.54135291  0.04733874  0.26243846    -0.59400
N242        N  0.68254451  0.02522407  0.16869475    -0.05000
N243        N  0.72216764  0.99461071  0.16533002    -0.60700
N244        N  0.68984511  0.06071681  0.20319196    -0.06900
N245        N  0.73517193  0.05519927  0.22392052    -0.59700
N246        N  0.56675588  0.02547328  0.18687850    -0.04700
N247        N  0.53253548  0.99009192  0.20006098    -0.60700
Mn248      Mn  0.61766725  0.02447162  0.12010717     1.18400
C249        C  0.51634389  0.00432078  0.24698948     0.97500
C250        C  0.75460942  0.01376133  0.19993634     0.98200
N251        N  0.56386119  0.18883729  0.02595831    -0.06900
N252        N  0.52898172  0.20190970  0.99148383    -0.63300
N253        N  0.68733952  0.20745804  0.05839882    -0.05700
N254        N  0.73246528  0.22895757  0.05204028    -0.63900
N255        N  0.68015398  0.17239168  0.02337129    -0.06500
N256        N  0.71957048  0.16935781  0.99235233    -0.63500
N257        N  0.56954064  0.22559810  0.05951525    -0.05300
N258        N  0.53855199  0.26475294  0.04791486    -0.64200
Mn259      Mn  0.61620259  0.12189467  0.02386777     1.10700
C260        C  0.51299172  0.24935425  0.00528339     0.98800
C261        C  0.75189152  0.20453304  0.01084193     0.98800
N262        N  0.69355657  0.18110153  0.21439086    -0.06500
N263        N  0.72689075  0.19263041  0.25079191    -0.61800
N264        N  0.57447663  0.21536866  0.18058728    -0.05800
N265        N  0.53268485  0.24299565  0.18537245    -0.58600
N266        N  0.57619718  0.17962559  0.21670051    -0.07100
N267        N  0.53620074  0.18254431  0.24715708    -0.61400
N268        N  0.69344458  0.21727644  0.17881284    -0.06100
N269        N  0.72725042  0.25374087  0.19038257    -0.58600
Mn270      Mn  0.63333706  0.12004263  0.21676101     1.20200
Mn271      Mn  0.63142220  0.21906757  0.11925862     1.10100
Cl272      Cl  0.62438285  0.12165848  0.12011953    -0.86600
C273        C  0.74853046  0.23778178  0.23535797     0.95800
C274        C  0.50921802  0.22147009  0.22648368     0.95600
C275        C  0.61924483  0.61698445  0.10553663    -0.03100
C276        C  0.11560343  0.62044011  0.60685700    -0.03100
N277        N  0.27713394  0.30857899  0.42161709    -0.06700
N278        N  0.24599508  0.26922425  0.42658306    -0.58800
N279        N  0.30805820  0.42475550  0.46534195    -0.06400
N280        N  0.29694442  0.45737000  0.50258155    -0.61000
N281        N  0.27247240  0.42640265  0.42979826    -0.06000
N282        N  0.23685642  0.46062801  0.44207000    -0.58800
N283        N  0.31347755  0.30675829  0.45626518    -0.05700
N284        N  0.30837633  0.26554807  0.48519748    -0.61300
C285        C  0.26654256  0.24247638  0.46575895     0.95500
C286        C  0.25241154  0.48000109  0.48762325     0.95200
N287        N  0.46497643  0.42671613  0.42194356    -0.06900
N288        N  0.49801526  0.46404794  0.42877399    -0.59400
N289        N  0.43285334  0.30814956  0.46146126    -0.05000
N290        N  0.44377600  0.27281223  0.49684975    -0.60700
N291        N  0.46850396  0.30911432  0.42568719    -0.06900
N292        N  0.50451804  0.27468630  0.43634507    -0.59700
N293        N  0.42905706  0.42687997  0.45753058    -0.04700
N294        N  0.43638320  0.46505830  0.48904684    -0.60700
Mn295      Mn  0.37082115  0.36673297  0.46200695     1.18400
C296        C  0.47892624  0.48803527  0.46996747     0.97500
C297        C  0.48857146  0.25167229  0.48067519     0.98200
N298        N  0.27616477  0.42967530  0.30889299    -0.06900
N299        N  0.24398819  0.46788112  0.30271084    -0.63300
N300        N  0.30782764  0.31391140  0.26654478    -0.05700
N301        N  0.29673781  0.28140345  0.22952483    -0.63900
N302        N  0.27180618  0.31289252  0.30205948    -0.06500
N303        N  0.23545039  0.27954689  0.28966296    -0.63500
N304        N  0.31173847  0.43037139  0.27297006    -0.05300
N305        N  0.30496162  0.46906222  0.24133553    -0.64200
Mn306      Mn  0.27260501  0.36958215  0.36578607     1.10700
C307        C  0.26302064  0.49169115  0.26080009     0.98800
C308        C  0.25187795  0.25954261  0.24465232     0.98800
N309        N  0.46182610  0.31104420  0.30611018    -0.06500
N310        N  0.49280339  0.27213205  0.29967151    -0.61800
N311        N  0.43188543  0.43102344  0.26697779    -0.05800
N312        N  0.44262894  0.46636979  0.23141120    -0.58600
N313        N  0.46835082  0.42929831  0.30159830    -0.07100
N314        N  0.50473057  0.46326788  0.28984541    -0.61400
N315        N  0.42753846  0.31314151  0.26946717    -0.06100
N316        N  0.43506479  0.27627634  0.23638524    -0.58600
Mn317      Mn  0.46758183  0.36899833  0.36376388     1.20200
Mn318      Mn  0.36980555  0.37226056  0.26744172     1.10100
Cl319      Cl  0.37018627  0.36964703  0.36479955    -0.86600
C320        C  0.47515768  0.25069961  0.25662015     0.95800
C321        C  0.48812328  0.48681126  0.24617478     0.95600
N322        N  0.53122595  0.67718407  0.68363594    -0.06700
N323        N  0.50074426  0.68335109  0.72309313    -0.58800
N324        N  0.55874986  0.71929677  0.56464681    -0.06400
N325        N  0.54673462  0.75532863  0.53045099    -0.61000
N326        N  0.52303627  0.68355928  0.56579931    -0.06000
N327        N  0.48657209  0.69423653  0.53204307    -0.58800
N328        N  0.56587836  0.71384246  0.68163341    -0.05700
N329        N  0.55932340  0.74634642  0.71909246    -0.61300
C330        C  0.51920200  0.72614331  0.74491822     0.95500
C331        C  0.50181683  0.73904565  0.50975561     0.95200
N332        N  0.71602283  0.67930050  0.56270768    -0.06900
N333        N  0.74739195  0.68553058  0.52375377    -0.59400
N334        N  0.68491606  0.71748292  0.67932881    -0.05000
N335        N  0.69558196  0.75308838  0.71342505    -0.60700
N336        N  0.72038945  0.68157428  0.67988711    -0.06900
N337        N  0.75582581  0.69220152  0.71471323    -0.59700
N338        N  0.68027400  0.71495078  0.56270708    -0.04700
N339        N  0.68635799  0.74666245  0.52381588    -0.60700
Mn340      Mn  0.62238250  0.71816030  0.62174486     1.18400
C341        C  0.72801525  0.72737105  0.50031831     0.97500
C342        C  0.73967506  0.73694094  0.73585109     0.98200
N343        N  0.52525002  0.56469883  0.56421444    -0.06900
N344        N  0.49131540  0.55880749  0.52778390    -0.63300
N345        N  0.55845608  0.52083208  0.67932391    -0.05700
N346        N  0.54638398  0.48285473  0.71158780    -0.63900
N347        N  0.52309823  0.55676079  0.68067408    -0.06500
N348        N  0.48605125  0.54361766  0.71328920    -0.63500
N349        N  0.56154612  0.52978701  0.56140590    -0.05300
N350        N  0.55359401  0.49960126  0.52236839    -0.64200
Mn351      Mn  0.52412219  0.62077864  0.62392263     1.10700
C352        C  0.51027282  0.51886579  0.50161974     0.98800
C353        C  0.50117463  0.49760885  0.73302377     0.98800
N354        N  0.71469907  0.56168053  0.67864090    -0.06500
N355        N  0.74669095  0.55403204  0.71651095    -0.61800
N356        N  0.68293629  0.52360208  0.56100524    -0.05800
N357        N  0.69432065  0.48771576  0.52698583    -0.58600
N358        N  0.71938028  0.55861873  0.56185416    -0.07100
N359        N  0.75615580  0.54695865  0.52866298    -0.61400
N360        N  0.67811143  0.52691212  0.67905586    -0.06100
N361        N  0.68370708  0.49529262  0.71797053    -0.58600
Mn362      Mn  0.71936894  0.62021166  0.62072831     1.20200
Mn363      Mn  0.62039712  0.52348692  0.61995506     1.10100
Cl364      Cl  0.62159395  0.62061375  0.62137067    -0.86600
C365        C  0.72614140  0.51319320  0.74097762     0.95800
C366        C  0.74008465  0.50281748  0.50651165     0.95600
C367        C  0.62242647  0.11671379  0.61119977    -0.03100
C368        C  0.12473339  0.12235167  0.11396294    -0.03100
C369        C  0.15853079  0.21303952  0.14307486    -0.12900
C370        C  0.16092031  0.15851644  0.14706539     0.04100
C371        C  0.19896173  0.13853845  0.18165115    -0.08100
C372        C  0.22730141  0.17165384  0.21358570    -0.08900
C373        C  0.22070160  0.22508803  0.21155123    -0.03400
C374        C  0.18661893  0.24552229  0.17520141     0.03400
N375        N  0.18020389  0.29983705  0.16986308     0.65900
H376        H  0.13612649  0.23201743  0.11414187     0.14800
H377        H  0.25504652  0.15538857  0.23983794     0.14500
N378        N  0.21004846  0.08471274  0.18487516     0.73600
O379        O  0.20510288  0.32389397  0.13561627    -0.39900
O380        O  0.14214603  0.32111975  0.19085929    -0.39800
O381        O  0.24701581  0.06741006  0.15884567    -0.40500
O382        O  0.19516616  0.05944035  0.22374554    -0.40600
C383        C  0.57308510  0.21039614  0.50137441    -0.12900
C384        C  0.52024293  0.21353950  0.51093368     0.04100
C385        C  0.49966807  0.18037772  0.54900252    -0.08100
C386        C  0.53203327  0.14761433  0.57785979    -0.08900
C387        C  0.58642830  0.14861913  0.57321519    -0.03400
C388        C  0.60581550  0.17859219  0.53072174     0.03400
N389        N  0.65839882  0.17706666  0.51491679     0.65900
H390        H  0.58982571  0.23356997  0.47088034     0.14800
H391        H  0.51311145  0.12144930  0.60390175     0.14500
N392        N  0.44560333  0.17800101  0.55825592     0.73600
O393        O  0.67065536  0.14585966  0.48029522    -0.39900
O394        O  0.68510684  0.21722291  0.51935798    -0.39800
O395        O  0.41976590  0.14271448  0.53793552    -0.40500
O396        O  0.42695876  0.20152569  0.59601231    -0.40600
C397        C  0.19126463  0.55785159  0.59750981    -0.12900
C398        C  0.15493239  0.58953666  0.57181705     0.04100
C399        C  0.15860466  0.58956057  0.51664063    -0.08100
C400        C  0.18998265  0.55333707  0.49140058    -0.08900
C401        C  0.22245488  0.51939390  0.51772475    -0.03400
C402        C  0.22465361  0.52392587  0.57157731     0.03400
N403        N  0.25833323  0.49233702  0.60130189     0.65900
H404        H  0.19219108  0.55758279  0.63896660     0.14800
H405        H  0.19014571  0.55304678  0.44990114     0.14500
N406        N  0.13464957  0.62710819  0.48415166     0.73600
O407        O  0.30076490  0.51053069  0.61559762    -0.39900
O408        O  0.24074056  0.45268833  0.62348822    -0.39800
O409        O  0.15858543  0.66826886  0.47457361    -0.40500
O410        O  0.10367369  0.61144656  0.45077664    -0.40600
C411        C  0.57334306  0.52339835  0.21822322    -0.12900
C412        C  0.51972232  0.52429800  0.21450514     0.04100
C413        C  0.49808103  0.56042542  0.18014222    -0.08100
C414        C  0.52978101  0.59194405  0.14879418    -0.08900
C415        C  0.58422040  0.58692271  0.14713099    -0.03400
C416        C  0.60529000  0.55401506  0.18632432     0.03400
N417        N  0.65932583  0.54951805  0.19424205     0.65900
H418        H  0.59118697  0.49753310  0.24560752     0.14800
H419        H  0.51027067  0.62064117  0.12620223     0.14500
N420        N  0.44371173  0.56712715  0.17743985     0.73600
O421        O  0.67987521  0.57811793  0.22704147    -0.39900
O422        O  0.68070014  0.50725824  0.18425645    -0.39800
O423        O  0.42303128  0.60320815  0.20194238    -0.40500
O424        O  0.41922365  0.54632919  0.14161370    -0.40600
C425        C  0.77944441  0.26531040  0.32218680    -0.12900
C426        C  0.78350089  0.26975252  0.26879189     0.04100
C427        C  0.82107105  0.30399994  0.24940569    -0.08100
C428        C  0.85118508  0.33409372  0.28284438    -0.08900
C429        C  0.84361670  0.33456131  0.33692106    -0.03400
C430        C  0.80890291  0.29564150  0.35579827     0.03400
N431        N  0.80302060  0.28449057  0.40910626     0.65900
H432        H  0.75262839  0.23776162  0.33857033     0.14800
H433        H  0.88120828  0.35672369  0.26512401     0.14500
N434        N  0.83188355  0.30644249  0.19581681     0.73600
O435        O  0.76025493  0.29396244  0.42994393    -0.39900
O436        O  0.83019698  0.24899707  0.42807909    -0.39800
O437        O  0.81660823  0.34459055  0.16983699    -0.40500
O438        O  0.86661874  0.27805807  0.17784112    -0.40600
C439        C  0.92033488  0.48017097  0.27292558    -0.12900
C440        C  0.97392190  0.48253065  0.27913815     0.04100
C441        C  0.99537400  0.44995423  0.31703956    -0.08100
C442        C  0.96407386  0.41550803  0.34594763    -0.08900
C443        C  0.90985937  0.41167396  0.33940221    -0.03400
C444        C  0.88851507  0.44728223  0.30293373     0.03400
N445        N  0.83420472  0.45157714  0.29576082     0.65900
H446        H  0.90228953  0.50555406  0.24523492     0.14800
H447        H  0.98323327  0.39355731  0.37539086     0.14500
N448        N  0.04931494  0.45046721  0.32658350     0.73600
O449        O  0.80987879  0.48428840  0.32161886    -0.39900
O450        O  0.81513384  0.43698889  0.25402850    -0.39800
O451        O  0.06596834  0.47332490  0.36549361    -0.40500
O452        O  0.07766730  0.41818959  0.30447266    -0.40600
C453        C  0.94517679  0.30472856  0.38518779    -0.12900
C454        C  0.90851803  0.33699443  0.40932246     0.04100
C455        C  0.90434591  0.33084186  0.46432042    -0.08100
C456        C  0.93808623  0.29782142  0.49119210    -0.08900
C457        C  0.97577464  0.26879231  0.46662854    -0.03400
C458        C  0.97892273  0.27229869  0.41282488     0.03400
N459        N  0.01606246  0.24309935  0.38524702     0.65900
H460        H  0.94872947  0.30585848  0.34383758     0.14800
H461        H  0.93391206  0.29402133  0.53239375     0.14500
N462        N  0.86439157  0.35335010  0.49463419     0.73600
O463        O  0.00272940  0.20108004  0.36569267    -0.39900
O464        O  0.05656773  0.26491725  0.36952386    -0.39800
O465        O  0.82486343  0.32684269  0.50413786    -0.40500
O466        O  0.87679182  0.38668229  0.52701847    -0.40600
C467        C  0.78434543  0.40520867  0.40488109    -0.12900
C468        C  0.83863789  0.40962985  0.40571843     0.04100
C469        C  0.85839378  0.45063765  0.43627232    -0.08100
C470        C  0.82553112  0.48037544  0.46726679    -0.08900
C471        C  0.77234638  0.47182922  0.46975708    -0.03400
C472        C  0.75189245  0.43405288  0.43719494     0.03400
N473        N  0.69783950  0.42508647  0.43501614     0.65900
H474        H  0.76571276  0.37979064  0.37865924     0.14800
H475        H  0.84239914  0.51010334  0.49048911     0.14500
N476        N  0.91165028  0.46435052  0.43572644     0.73600
O477        O  0.67191267  0.44714556  0.40050374    -0.39900
O478        O  0.67923600  0.38631353  0.45792586    -0.39800
O479        O  0.92528358  0.50404515  0.41094041    -0.40500
O480        O  0.94072520  0.44742706  0.47053160    -0.40600
C481        C  0.28553946  0.84985585  0.32998013    -0.12900
C482        C  0.33940263  0.84124916  0.33221541     0.04100
C483        C  0.35916438  0.80660150  0.29463314    -0.08100
C484        C  0.32582200  0.77939691  0.26177615    -0.08900
C485        C  0.27216743  0.78525187  0.26362275    -0.03400
C486        C  0.25243502  0.82170257  0.29811561     0.03400
N487        N  0.19865976  0.83227418  0.30048106     0.65900
H488        H  0.26773522  0.87937618  0.35258269     0.14800
H489        H  0.34239648  0.75275396  0.23478402     0.14500
N490        N  0.41313714  0.79893318  0.28775493     0.73600
O491        O  0.17195207  0.81114129  0.33527401    -0.39900
O492        O  0.18154973  0.87183997  0.27799729    -0.39800
O493        O  0.43254026  0.75666285  0.30178597    -0.40500
O494        O  0.43590462  0.82476105  0.25329209    -0.40600
C495        C  0.42770704  0.97961241  0.27680490    -0.12900
C496        C  0.48094661  0.97221624  0.27921392     0.04100
C497        C  0.49932292  0.92969774  0.30717540    -0.08100
C498        C  0.46519482  0.89732943  0.33411756    -0.08900
C499        C  0.41145422  0.90652491  0.33636686    -0.03400
C500        C  0.39303650  0.94701936  0.30362323     0.03400
N501        N  0.33932967  0.95535492  0.29581764     0.65900
H502        H  0.41268427  0.01027269  0.25280674     0.14800
H503        H  0.48198155  0.86417481  0.35270930     0.14500
N504        N  0.55293440  0.91813677  0.30814417     0.73600
O505        O  0.31862554  0.99478551  0.31454561    -0.39900
O506        O  0.31833822  0.93462507  0.25781627    -0.39800
O507        O  0.57938347  0.93211173  0.34585428    -0.40500
O508        O  0.57052020  0.88435785  0.27858136    -0.40600
C509        C  0.34897142  0.95791025  0.41579176    -0.12900
C510        C  0.34132366  0.90439693  0.40990852     0.04100
C511        C  0.30418644  0.88121666  0.44380895    -0.08100
C512        C  0.27319840  0.91161666  0.47598650    -0.08900
C513        C  0.27994800  0.96494797  0.47946701    -0.03400
C514        C  0.31955836  0.98762098  0.44976972     0.03400
N515        N  0.33130437  0.04102042  0.45376657     0.65900
H516        H  0.37974304  0.97753165  0.39587671     0.14800
H517        H  0.24470339  0.89273764  0.50002296     0.14500
N518        N  0.29784391  0.82662221  0.44755533     0.73600
O519        O  0.36729388  0.05470209  0.48277560    -0.39900
O520        O  0.31559073  0.07178714  0.41960057    -0.39800
O521        O  0.32075226  0.80285686  0.48310387    -0.40500
O522        O  0.25813618  0.80646797  0.42888004    -0.40600
C523        C  0.40286017  0.78168541  0.40819046    -0.12900
C524        C  0.40788347  0.83591077  0.40784455     0.04100
C525        C  0.44340700  0.85657959  0.44424545    -0.08100
C526        C  0.47411611  0.82414061  0.47469768    -0.08900
C527        C  0.46970401  0.77064027  0.47347919    -0.03400
C528        C  0.43299271  0.74949024  0.44000947     0.03400
N529        N  0.42624863  0.69516327  0.43676991     0.65900
H530        H  0.37434650  0.76334539  0.38479268     0.14800
H531        H  0.50074540  0.84152548  0.50113694     0.14500
N532        N  0.44888578  0.91064347  0.45220915     0.73600
O533        O  0.38881490  0.67423811  0.45974966    -0.39900
O534        O  0.44883460  0.67112518  0.40153369    -0.39800
O535        O  0.42677831  0.92979195  0.49063596    -0.40500
O536        O  0.48826703  0.93312704  0.43461487    -0.40600
C537        C  0.32329836  0.27225573  0.76359983    -0.12900
C538        C  0.26958776  0.27261450  0.76758805     0.04100
C539        C  0.24745822  0.30718941  0.80271573    -0.08100
C540        C  0.27869607  0.33735520  0.83495407    -0.08900
C541        C  0.33314192  0.33521274  0.83372642    -0.03400
C542        C  0.35469912  0.30424160  0.79368732     0.03400
N543        N  0.40775141  0.30775033  0.77925695     0.65900
H544        H  0.34134605  0.24862459  0.73476945     0.14800
H545        H  0.25923513  0.36380869  0.85981141     0.14500
N546        N  0.19298524  0.31218039  0.80669842     0.73600
O547        O  0.43851068  0.27285761  0.79293287    -0.39900
O548        O  0.41964470  0.33570943  0.74115743    -0.39800
O549        O  0.16963856  0.29031831  0.84339644    -0.40500
O550        O  0.17071030  0.34742268  0.78175300    -0.40600
C551        C  0.27164075  0.42333713  0.97710949    -0.12900
C552        C  0.27852853  0.47693317  0.97304272     0.04100
C553        C  0.31613568  0.49458208  0.93822157    -0.08100
C554        C  0.34469364  0.45995914  0.90819659    -0.08900
C555        C  0.33555317  0.40598038  0.90797173    -0.03400
C556        C  0.30037679  0.38822780  0.94674757     0.03400
N557        N  0.29614796  0.33477189  0.95913045     0.65900
H558        H  0.24447470  0.40830027  0.00506492     0.14800
H559        H  0.37490215  0.47704571  0.88535184     0.14500
N560        N  0.32608000  0.54823888  0.93233402     0.73600
O561        O  0.32160341  0.31720809  0.99643678    -0.39900
O562        O  0.25756573  0.30996999  0.94401369    -0.39800
O563        O  0.36649714  0.56647165  0.95119833    -0.40500
O564        O  0.30326088  0.57322959  0.89758468    -0.40600
C565        C  0.43405051  0.35959641  0.94334978    -0.12900
C566        C  0.40136113  0.33364717  0.90868452     0.04100
C567        C  0.40278073  0.27834793  0.91215192    -0.08100
C568        C  0.43919613  0.25325558  0.94374180    -0.08900
C569        C  0.47357025  0.27985452  0.97509766    -0.03400
C570        C  0.46971054  0.33395205  0.97525025     0.03400
N571        N  0.50451197  0.36427831  0.00413860     0.65900
H572        H  0.43400866  0.40119711  0.94364829     0.14800
H573        H  0.43965693  0.21162725  0.94450604     0.14500
N574        N  0.36639346  0.24560506  0.88764273     0.73600
O575        O  0.54455201  0.38110060  0.98230175    -0.39900
O576        O  0.48861651  0.38583946  0.04424002    -0.39800
O577        O  0.38285938  0.21265780  0.85649961    -0.40500
O578        O  0.32466671  0.23612190  0.91055923    -0.40600
C579        C  0.41490424  0.46897622  0.76641155    -0.12900
C580        C  0.46860303  0.46468495  0.76816993     0.04100
C581        C  0.48958152  0.42769938  0.80192581    -0.08100
C582        C  0.45748623  0.39723735  0.83353924    -0.08900
C583        C  0.40311160  0.40210009  0.83381221    -0.03400
C584        C  0.38234419  0.43779773  0.79706999     0.03400
N585        N  0.32812792  0.44342477  0.78997215     0.65900
H586        H  0.39764040  0.49601234  0.73977590     0.14800
H587        H  0.47646804  0.36848215  0.85659058     0.14500
N588        N  0.54385258  0.42108355  0.80588901     0.73600
O589        O  0.30689878  0.41828031  0.75487682    -0.39900
O590        O  0.30649605  0.48385668  0.80529481    -0.39800
O591        O  0.56755771  0.44330533  0.84138125    -0.40500
O592        O  0.56488570  0.38379660  0.78357127    -0.40600
C593        C  0.21516814  0.72524529  0.65597723    -0.12900
C594        C  0.21491299  0.71839530  0.70939700     0.04100
C595        C  0.18414762  0.67787705  0.72918666    -0.08100
C596        C  0.15470397  0.64661165  0.69641300    -0.08900
C597        C  0.15158311  0.65502226  0.64258905    -0.03400
C598        C  0.18579155  0.69394315  0.62293679     0.03400
N599        N  0.19398582  0.70129135  0.56929304     0.65900
H600        H  0.23993107  0.75435533  0.63907867     0.14800
H601        H  0.13543071  0.61455033  0.71448473     0.14500
N602        N  0.18120780  0.66798473  0.78304026     0.73600
O603        O  0.23259220  0.67995261  0.54932734    -0.39900
O604        O  0.17635225  0.74129584  0.54801292    -0.39800
O605        O  0.14368849  0.68556101  0.80807816    -0.40500
O606        O  0.20761439  0.63206114  0.80225237    -0.40600
C607        C  0.15876703  0.03392372  0.08214670    -0.12900
C608        C  0.16229875  0.08819111  0.08138038     0.04100
C609        C  0.20275326  0.10985303  0.05034146    -0.08100
C610        C  0.23327303  0.07838657  0.01881605    -0.08900
C611        C  0.22667246  0.02497580  0.01769394    -0.03400
C612        C  0.18899620  0.00291743  0.05016961     0.03400
N613        N  0.17873256  0.94899436  0.04947776     0.65900
H614        H  0.13250961  0.01420557  0.10746577     0.14800
H615        H  0.26327783  0.09604714  0.99574388     0.14500
N616        N  0.21504341  0.16351936  0.05114027     0.73600
O617        O  0.19541432  0.92075994  0.08529683    -0.39900
O618        O  0.14285754  0.93264629  0.02171940    -0.39800
O619        O  0.20017831  0.19239752  0.01502296    -0.40500
O620        O  0.25241976  0.17798632  0.07798510    -0.40600
C621        C  0.54822864  0.73416212  0.03630272    -0.12900
C622        C  0.50902047  0.70873734  0.01047147     0.04100
C623        C  0.50988386  0.65455793  0.01092875    -0.08100
C624        C  0.54747952  0.62741874  0.03889336    -0.08900
C625        C  0.58470678  0.65232091  0.06931581    -0.03400
C626        C  0.58683986  0.70756639  0.06348756     0.03400
N627        N  0.62937970  0.73823371  0.07955386     0.65900
H628        H  0.55027327  0.77570547  0.03367594     0.14800
H629        H  0.54530484  0.58584280  0.03970045     0.14500
N630        N  0.46962046  0.62604489  0.98792081     0.73600
O631        O  0.66767791  0.74227242  0.05005752    -0.39900
O632        O  0.62085193  0.77448586  0.11012712    -0.39800
O633        O  0.47811255  0.60315135  0.94639385    -0.40500
O634        O  0.43180791  0.61268142  0.01538021    -0.40600
C635        C  0.59339647  0.02632159  0.65066603    -0.12900
C636        C  0.58939252  0.08102531  0.65015715     0.04100
C637        C  0.55530802  0.10118210  0.68842973    -0.08100
C638        C  0.52334576  0.06852699  0.71842011    -0.08900
C639        C  0.52387494  0.01487125  0.71384266    -0.03400
C640        C  0.56061356  0.99395217  0.68016376     0.03400
N641        N  0.56714659  0.93960361  0.67689560     0.65900
H642        H  0.62258544  0.00706303  0.62879536     0.14800
H643        H  0.49713247  0.08587201  0.74549992     0.14500
N644        N  0.55172591  0.15493354  0.69817594     0.73600
O645        O  0.54687997  0.91590891  0.64027025    -0.39900
O646        O  0.60258959  0.91822801  0.70208745    -0.39800
O647        O  0.50990710  0.17745628  0.68848711    -0.40500
O648        O  0.58039835  0.17352884  0.73210775    -0.40600
C649        C  0.69058683  0.23496072  0.67938202    -0.12900
C650        C  0.72340443  0.20972732  0.71365523     0.04100
C651        C  0.72046219  0.15572580  0.71674290    -0.08100
C652        C  0.68726726  0.12834557  0.68414081    -0.08900
C653        C  0.65594615  0.15278048  0.64669031    -0.03400
C654        C  0.65599969  0.20824669  0.64762504     0.03400
N655        N  0.61860083  0.23934895  0.62181980     0.65900
H656        H  0.69003479  0.27660682  0.67891295     0.14800
H657        H  0.68729420  0.08679425  0.68701468     0.14500
N658        N  0.75157597  0.12762756  0.75218363     0.73600
O659        O  0.57582109  0.24643027  0.64341557    -0.39900
O660        O  0.63397850  0.27306717  0.59017174    -0.39800
O661        O  0.73126725  0.10928200  0.79239677    -0.40500
O662        O  0.79460201  0.11076101  0.73766729    -0.40600
C663        C  0.05734409  0.19228741  0.99603862    -0.12900
C664        C  0.02630552  0.22781495  0.02125379     0.04100
C665        C  0.02358217  0.22484516  0.07520584    -0.08100
C666        C  0.05291503  0.18843542  0.10236497    -0.08900
C667        C  0.08812910  0.15513898  0.07796687    -0.03400
C668        C  0.08625989  0.15496045  0.02274359     0.03400
N669        N  0.10775312  0.11497815  0.99204380     0.65900
H670        H  0.05725049  0.19172224  0.95454744     0.14800
H671        H  0.05070885  0.18860537  0.14380997     0.14500
N672        N  0.99340568  0.26029979  0.10374363     0.73600
O673        O  0.14094819  0.12696313  0.95859863    -0.39900
O674        O  0.08072242  0.07568904  0.98413361    -0.39800
O675        O  0.95274806  0.24454417  0.12514477    -0.40500
O676        O  0.01395988  0.30125221  0.11903115    -0.40600
C677        C  0.64202064  0.52328817  0.07633667    -0.12900
C678        C  0.64752375  0.57726625  0.06881909     0.04100
C679        C  0.67757161  0.59205575  0.02467467    -0.08100
C680        C  0.70702787  0.55540601  0.99773943    -0.08900
C681        C  0.70558017  0.50309464  0.01052520    -0.03400
C682        C  0.67132059  0.48708701  0.04924998     0.03400
N683        N  0.66549588  0.43383608  0.06188745     0.65900
H684        H  0.61484080  0.50746296  0.10330663     0.14800
H685        H  0.73066482  0.56802422  0.96573199     0.14500
N686        N  0.67667700  0.64304117  0.00373161     0.73600
O687        O  0.69011176  0.41524955  0.09923466    -0.39900
O688        O  0.62704766  0.40984697  0.04529292    -0.39800
O689        O  0.71832068  0.66771817  0.00064925    -0.40500
O690        O  0.64175242  0.65406471  0.97211667    -0.40600
C691        C  0.04206584  0.49669455  0.66530334    -0.12900
C692        C  0.01446594  0.51776765  0.70622422     0.04100
C693        C  0.01773509  0.57135704  0.71241917    -0.08100
C694        C  0.04805705  0.60207049  0.67879789    -0.08900
C695        C  0.07999349  0.58140451  0.63978782    -0.03400
C696        C  0.07368581  0.52685981  0.63208534     0.03400
N697        N  0.09512468  0.50049185  0.58920156     0.65900
H698        H  0.03868920  0.45588932  0.65851668     0.14800
H699        H  0.04862630  0.64242782  0.68536983     0.14500
N700        N  0.99073721  0.59588341  0.75307629     0.73600
O701        O  0.12693863  0.46490103  0.59776396    -0.39900
O702        O  0.06967248  0.49904665  0.54826314    -0.39800
O703        O  0.01488415  0.60778284  0.79299713    -0.40500
O704        O  0.94814992  0.61705343  0.74390389    -0.40600
C705        C  0.63322411  0.68399162  0.17445848    -0.12900
C706        C  0.65669684  0.65065881  0.13862369     0.04100
C707        C  0.71188452  0.64966305  0.13881178    -0.08100
C708        C  0.73964626  0.68359495  0.17017453    -0.08900
C709        C  0.71544623  0.71826912  0.20311156    -0.03400
C710        C  0.66134905  0.71754265  0.20552018     0.03400
N711        N  0.63382079  0.74961662  0.24017450     0.65900
H712        H  0.59173464  0.68524218  0.17730986     0.14800
H713        H  0.78120762  0.68195673  0.16939562     0.14500
N714        N  0.74168760  0.61282143  0.11136703     0.73600
O715        O  0.61517044  0.79139282  0.22383868    -0.39900
O716        O  0.61694581  0.73046726  0.28158514    -0.39800
O717        O  0.77460065  0.62893525  0.07937196    -0.40500
O718        O  0.74846335  0.56899918  0.13129197    -0.40600
C719        C  0.01848417  0.02540124  0.16805038    -0.12900
C720        C  0.02494280  0.02835781  0.22110226     0.04100
C721        C  0.06037666  0.06423896  0.23948076    -0.08100
C722        C  0.08914003  0.09531469  0.20535793    -0.08900
C723        C  0.08746373  0.08974691  0.15118621    -0.03400
C724        C  0.04805624  0.05569242  0.13339134     0.03400
N725        N  0.03561989  0.05190499  0.08040512     0.65900
H726        H  0.98970295  0.99957324  0.15314055     0.14800
H727        H  0.11266855  0.12402393  0.22299874     0.14500
N728        N  0.06812345  0.06956585  0.29325680     0.73600
O729        O  0.04498852  0.01022914  0.05795645    -0.39900
O730        O  0.00031592  0.08028524  0.06303778    -0.39800
O731        O  0.10520133  0.04653680  0.31430249    -0.40500
O732        O  0.04565834  0.10521665  0.31677002    -0.40600
C733        C  0.04194755  0.62829093  0.54119324    -0.12900
C734        C  0.07560297  0.65396884  0.57502283     0.04100
C735        C  0.06691175  0.70818616  0.57932854    -0.08100
C736        C  0.03699463  0.73464409  0.54237396    -0.08900
C737        C  0.00864113  0.70883975  0.50489320    -0.03400
C738        C  0.00898221  0.65463318  0.50691989     0.03400
N739        N  0.97754971  0.62510354  0.47350038     0.65900
H740        H  0.04274772  0.58732794  0.53945344     0.14800
H741        H  0.03333292  0.77593681  0.54510740     0.14500
N742        N  0.08015950  0.73625979  0.62428929     0.73600
O743        O  0.99542497  0.61097940  0.43092620    -0.39900
O744        O  0.93806073  0.60308959  0.49141283    -0.39800
O745        O  0.10636321  0.77685791  0.61950558    -0.40500
O746        O  0.05151617  0.73166437  0.66318394    -0.40600
C747        C  0.73680863  0.04886115  0.53455470    -0.12900
C748        C  0.71043742  0.01361875  0.50414232     0.04100
C749        C  0.65637800  0.01255936  0.50877159    -0.08100
C750        C  0.63070642  0.04689366  0.54189366    -0.08900
C751        C  0.65683132  0.08160180  0.57459946    -0.03400
C752        C  0.71190643  0.08253907  0.56862051     0.03400
N753        N  0.74455779  0.11931097  0.59248091     0.65900
H754        H  0.77820860  0.05148865  0.53110061     0.14800
H755        H  0.58914681  0.04542204  0.54315781     0.14500
N756        N  0.62634066  0.97765308  0.47961029     0.73600
O757        O  0.77688854  0.10298810  0.62460559    -0.39900
O758        O  0.75506056  0.16023294  0.56828132    -0.39800
O759        O  0.60936736  0.93730929  0.50102623    -0.40500
O760        O  0.60606258  0.99324760  0.43850752    -0.40600
C761        C  0.79201834  0.88372328  0.93323974    -0.12900
C762        C  0.82817357  0.90930129  0.90111729     0.04100
C763        C  0.82269338  0.96442195  0.89706985    -0.08100
C764        C  0.78695664  0.99017310  0.92815642    -0.08900
C765        C  0.75412436  0.96417071  0.96212103    -0.03400
C766        C  0.75637167  0.91004980  0.96389102     0.03400
N767        N  0.72136549  0.88068499  0.99483144     0.65900
H768        H  0.79224179  0.84212584  0.93551607     0.14800
H769        H  0.78408164  0.03159780  0.92454631     0.14500
N770        N  0.84753034  0.99572601  0.85871797     0.73600
O771        O  0.68159240  0.86237907  0.97450733    -0.39900
O772        O  0.73625623  0.86251611  0.03724045    -0.39800
O773        O  0.82426447  0.00381196  0.81719192    -0.40500
O774        O  0.87828846  0.03000019  0.87322184    -0.40600
C775        C  0.90009585  0.90177433  0.77926489    -0.12900
C776        C  0.90278043  0.90627303  0.83327806     0.04100
C777        C  0.94299442  0.93877424  0.85199103    -0.08100
C778        C  0.97283378  0.96907834  0.81784910    -0.08900
C779        C  0.96544133  0.96733027  0.76487926    -0.03400
C780        C  0.92932461  0.93261426  0.74576688     0.03400
N781        N  0.92202984  0.92759435  0.69187832     0.65900
H782        H  0.87578097  0.87393355  0.76140525     0.14800
H783        H  0.00247671  0.99376676  0.83296749     0.14500
N784        N  0.95617838  0.94035290  0.90508806     0.73600
O785        O  0.94413986  0.89156109  0.66857680    -0.39900
O786        O  0.88496334  0.95059187  0.67078443    -0.39800
O787        O  0.99235518  0.91206377  0.92065821    -0.40500
O788        O  0.94579980  0.98019856  0.93015040    -0.40600
C789        C  0.83165193  0.78236434  0.84179992    -0.12900
C790        C  0.82901633  0.83698633  0.83750146     0.04100
C791        C  0.79025579  0.85586291  0.80316242    -0.08100
C792        C  0.76210430  0.82237458  0.77199470    -0.08900
C793        C  0.76954561  0.76917175  0.77290308    -0.03400
C794        C  0.80434783  0.74917878  0.80916521     0.03400
N795        N  0.81174344  0.69503623  0.81470329     0.65900
H796        H  0.85474698  0.76379479  0.87061383     0.14800
H797        H  0.73451425  0.83889411  0.74563539     0.14500
N798        N  0.77893016  0.90921261  0.79740006     0.73600
O799        O  0.84987925  0.67443665  0.79317169    -0.39900
O800        O  0.78912007  0.67124892  0.85067591    -0.39800
O801        O  0.78978691  0.93074238  0.75511041    -0.40500
O802        O  0.74231882  0.92723628  0.82345085    -0.40600
C803        C  0.93899280  0.80843156  0.87931488    -0.12900
C804        C  0.90312476  0.84045382  0.90492494     0.04100
C805        C  0.90509694  0.83824862  0.96007701    -0.08100
C806        C  0.93520597  0.80064875  0.98528413    -0.08900
C807        C  0.96718107  0.76666725  0.95885106    -0.03400
C808        C  0.96994647  0.77211273  0.90508272     0.03400
N809        N  0.00142217  0.73888875  0.87522769     0.65900
H810        H  0.94095129  0.80955452  0.83787114     0.14800
H811        H  0.93477825  0.79925706  0.02677766     0.14500
N812        N  0.88085759  0.87503937  0.99253501     0.73600
O813        O  0.98170405  0.69910553  0.85636810    -0.39900
O814        O  0.04327701  0.75570352  0.85711530    -0.39800
O815        O  0.84911912  0.85897887  0.02574890    -0.40500
O816        O  0.90398078  0.91662193  0.00106245    -0.40600
loop_ 
_geom_bond_atom_site_label_1 
_geom_bond_atom_site_label_2 
_geom_bond_distance 
_geom_bond_site_symmetry_2 
_ccdc_geom_bond_type 
C1          C762   1.577       .  S
C1          C776   1.581       .  S
C1          C790   1.607       .  S
C1          C804   1.596       .  S
N2            N3   1.333       .  A
N2            N8   1.315       .  A
N2          Mn31   2.249       .  S
N3           C10   1.363       .  A
N4            N6   1.312       .  A
N4            N5   1.308       .  A
N4          Mn20   2.118       .  S
N5           C11   1.340       .  A
N6            N7   1.308       .  A
N6          Mn31   2.162       .  S
N7           C11   1.350       .  A
N8            N9   1.323       .  A
N8          Mn20   2.219       .  S
N9           C10   1.356       .  A
C10         C748   1.516   1_565  S
C11         C250   1.405   1_565  S
N12          N18   1.312       .  A
N12          N13   1.328   1_655  A
N12         Mn42   2.225       .  S
N13          C21   1.357   1_455  A
N14          N15   1.306       .  A
N14          N16   1.314       .  A
N14         Mn20   2.140       .  S
N15          C22   1.342       .  A
N16          N17   1.306       .  A
N16         Mn42   2.123       .  S
N17          C22   1.339       .  A
N18          N19   1.327   1_565  A
N18         Mn20   2.223       .  S
N19          C21   1.357   1_545  A
Mn20        Cl44   2.532       .  S
C21         C720   1.500   1_665  S
C22         C159   1.398   1_655  S
N23          N24   1.327       .  A
N23          N29   1.315       .  A
N23         Mn31   2.220       .  S
N24          C32   1.357       .  A
N25          N27   1.319       .  A
N25          N26   1.310       .  A
N25         Mn43   2.167       .  S
N26          C33   1.345       .  A
N27          N28   1.309       .  A
N27         Mn31   2.156       .  S
N28          C33   1.343       .  A
N29          N30   1.325       .  A
N29         Mn43   2.218       .  S
N30          C32   1.356       .  A
Mn31        Cl44   2.542       .  S
C32         C709   1.502       .  S
C33         C341   1.413       .  S
N34          N35   1.324       .  A
N34          N40   1.314       .  A
N34         Mn42   2.219       .  S
N35          C45   1.356       .  A
N36          N37   1.309       .  A
N36          N38   1.311       .  A
N36         Mn43   2.170       .  S
N37          C46   1.351       .  A
N38          N39   1.307       .  A
N38         Mn42   2.110       .  S
N39          C46   1.339       .  A
N40          N41   1.332       .  A
N40         Mn43   2.247       .  S
N41          C45   1.362       .  A
Mn42        Cl44   2.536       .  S
Mn43        Cl44   2.534       .  S
C45         C737   1.512   1_655  S
C46         C193   1.406   1_655  S
N47          N48   1.304       .  A
N47          N53   1.318       .  A
N47         Mn76   2.131       .  S
N48          C55   1.336       .  A
N49          N51   1.313       .  A
N49          N50   1.323   1_556  A
N49         Mn65   2.195       .  S
N50          C56   1.352   1_554  A
N51          N52   1.327   1_655  A
N51         Mn76   2.239       .  S
N52          C56   1.361   1_455  A
N53          N54   1.307       .  A
N53         Mn65   2.127       .  S
N54          C55   1.338       .  A
C55         C204   1.393   1_656  S
C56         C664   1.499   1_656  S
N57          N63   1.311       .  A
N57          N58   1.307       .  A
N57         Mn87   2.157       .  S
N58          C66   1.350       .  A
N59          N60   1.326       .  A
N59          N61   1.314       .  A
N59         Mn65   2.216       .  S
N60          C67   1.356       .  A
N61          N62   1.328       .  A
N61         Mn87   2.233       .  S
N62          C67   1.357       .  A
N63          N64   1.308       .  A
N63         Mn65   2.120       .  S
N64          C66   1.341       .  A
Mn65        Cl89   2.535       .  S
C66         C261   1.406   1_556  S
C67         C681   1.497   1_556  S
N68          N69   1.310   1_655  A
N68          N74   1.314       .  A
N68         Mn76   2.136       .  S
N69          C77   1.342   1_455  A
N70          N72   1.316       .  A
N70          N71   1.331       .  A
N70         Mn88   2.257       .  S
N71          C78   1.361       .  A
N72          N73   1.331       .  A
N72         Mn76   2.241       .  S
N73          C78   1.359       .  A
N74          N75   1.308       .  A
N74         Mn88   2.162       .  S
N75          C77   1.347       .  A
Mn76        Cl89   2.533       .  S
C77         C183   1.408   1_655  S
C78         C692   1.517   1_655  S
N79          N80   1.310       .  A
N79          N85   1.316       .  A
N79         Mn87   2.142       .  S
N80          C90   1.341       .  A
N81          N82   1.329       .  A
N81          N83   1.315       .  A
N81         Mn88   2.247       .  S
N82          C91   1.360       .  A
N83          N84   1.328       .  A
N83         Mn87   2.221       .  S
N84          C91   1.356       .  A
N85          N86   1.309       .  A
N85         Mn88   2.168       .  S
N86          C90   1.348       .  A
Mn87        Cl89   2.538       .  S
Mn88        Cl89   2.533       .  S
C90         C365   1.408       .  S
C91         C650   1.505       .  S
N92          N93   1.327       .  A
N92          N98   1.313       .  A
N92        Mn121   2.225       .  S
N93         C100   1.357       .  A
N94          N96   1.310       .  A
N94          N95   1.307       .  A
N94        Mn110   2.117       .  S
N95         C101   1.340       .  A
N96          N97   1.309       .  A
N96        Mn121   2.158       .  S
N97         C101   1.351       .  A
N98          N99   1.326       .  A
N98        Mn110   2.220       .  S
N99         C100   1.359       .  A
C100        C622   1.505   1_556  S
C101        C228   1.405   1_556  S
N102        N108   1.311       .  A
N102        N103   1.328   1_565  A
N102       Mn132   2.231       .  S
N103        C111   1.360   1_545  A
N104        N105   1.308       .  A
N104        N106   1.318       .  A
N104       Mn110   2.140       .  S
N105        C112   1.339       .  A
N106        N107   1.304       .  A
N106       Mn132   2.119       .  S
N107        C112   1.335       .  A
N108        N109   1.323   1_556  A
N108       Mn110   2.200       .  S
N109        C111   1.353   1_554  A
Mn110      Cl134   2.526       .  S
C111        C611   1.500   1_566  S
C112        C239   1.395   1_566  S
N113        N114   1.328       .  A
N113        N119   1.314       .  A
N113       Mn121   2.220       .  S
N114        C122   1.357       .  A
N115        N117   1.316       .  A
N115        N116   1.310       .  A
N115       Mn133   2.172       .  S
N116        C123   1.349       .  A
N117        N118   1.310       .  A
N117       Mn121   2.148       .  S
N118        C123   1.343       .  A
N119        N120   1.331       .  A
N119       Mn133   2.257       .  S
N120        C122   1.364       .  A
Mn121      Cl134   2.538       .  S
C122        C594   1.523       .  S
C123        C330   1.412       .  S
N124        N125   1.326       .  A
N124        N130   1.315       .  A
N124       Mn132   2.223       .  S
N125        C135   1.357       .  A
N126        N127   1.310       .  A
N126        N128   1.313       .  A
N126       Mn133   2.178       .  S
N127        C136   1.352       .  A
N128        N129   1.305       .  A
N128       Mn132   2.103       .  S
N129        C136   1.335       .  A
N130        N131   1.332       .  A
N130       Mn133   2.258       .  S
N131        C135   1.363       .  A
Mn132      Cl134   2.532       .  S
Mn133      Cl134   2.535       .  S
C135        C639   1.517   1_565  S
C136        C148   1.400   1_565  S
C137        C541   1.592       .  S
C137        C555   1.610       .  S
C137        C566   1.596       .  S
C137        C583   1.592       .  S
C138        C482   1.597       .  S
C138        C499   1.588       .  S
C138        C510   1.586       .  S
C138        C524   1.586       .  S
C139        C429   1.611       .  S
C139        C443   1.607       .  S
C139        C454   1.594       .  S
C139        C468   1.587       .  S
N140        N141   1.307       .  A
N140        N146   1.312       .  A
N140       Mn169   2.162       .  S
N141        C148   1.349       .  A
N142        N144   1.315       .  A
N142        N143   1.327   1_545  A
N142       Mn158   2.226       .  S
N143        C149   1.360       .  A
N144        N145   1.325       .  A
N144       Mn169   2.227       .  S
N145        C149   1.356   1_545  A
N146        N147   1.307   1_545  A
N146       Mn158   2.112       .  S
N147        C148   1.338   1_565  A
C149        C513   1.506       .  S
N150        N156   1.316       .  A
N150        N151   1.305   1_455  A
N150       Mn180   2.125       .  S
N151        C159   1.337   1_645  A
N152        N153   1.323   1_545  A
N152        N154   1.314       .  A
N152       Mn158   2.208       .  S
N153        C160   1.353   1_455  A
N154        N155   1.326   1_455  A
N154       Mn180   2.222       .  S
N155        C160   1.356   1_545  A
N156        N157   1.309   1_545  A
N156       Mn158   2.140       .  S
N157        C159   1.342       .  A
Mn158      Cl182   2.537       .  S
C160        C779   1.486       .  S
N161        N162   1.312       .  A
N161        N167   1.314       .  A
N161       Mn169   2.145       .  S
N162        C170   1.344       .  A
N163        N165   1.314       .  A
N163        N164   1.329       .  A
N163       Mn181   2.234       .  S
N164        C171   1.358       .  A
N165        N166   1.328       .  A
N165       Mn169   2.234       .  S
N166        C171   1.360       .  A
N167        N168   1.309       .  A
N167       Mn181   2.170       .  S
N168        C170   1.348       .  A
Mn169      Cl182   2.536       .  S
C170        C285   1.414       .  S
C171        C538   1.514       .  S
N172        N173   1.308   1_455  A
N172        N178   1.312       .  A
N172       Mn180   2.128       .  S
N173        C183   1.341   1_655  A
N174        N175   1.329       .  A
N174        N176   1.315       .  A
N174       Mn181   2.240       .  S
N175        C184   1.359       .  A
N176        N177   1.327   1_455  A
N176       Mn180   2.226       .  S
N177        C184   1.357   1_655  A
N178        N179   1.311       .  A
N178       Mn181   2.162       .  S
N179        C183   1.348       .  A
Mn180      Cl182   2.531       .  S
Mn181      Cl182   2.529       .  S
C184        C457   1.503   1_455  S
N185        N186   1.308       .  A
N185        N191   1.311       .  A
N185       Mn214   2.168       .  S
N186        C193   1.351       .  A
N187        N189   1.315       .  A
N187        N188   1.326   1_455  A
N187       Mn203   2.225       .  S
N188        C194   1.357   1_655  A
N189        N190   1.334       .  A
N189       Mn214   2.268       .  S
N190        C194   1.366       .  A
N191        N192   1.308   1_455  A
N191       Mn203   2.109       .  S
N192        C193   1.340   1_655  A
C194        C440   1.523   1_455  S
N195        N201   1.315       .  A
N195        N196   1.303   1_554  A
N195       Mn225   2.123       .  S
N196        C204   1.338   1_556  A
N197        N198   1.326   1_455  A
N197        N199   1.311       .  A
N197       Mn203   2.225       .  S
N198        C205   1.359   1_554  A
N199        N200   1.328   1_554  A
N199       Mn225   2.221       .  S
N200        C205   1.358   1_455  A
N201        N202   1.306   1_455  A
N201       Mn203   2.127       .  S
N202        C204   1.339   1_655  A
Mn203      Cl227   2.537       .  S
C205        C807   1.508       .  S
N206        N207   1.310       .  A
N206        N212   1.319       .  A
N206       Mn214   2.159       .  S
N207        C215   1.344       .  A
N208        N210   1.317       .  A
N208        N209   1.329       .  A
N208       Mn226   2.246       .  S
N209        C216   1.360       .  A
N210        N211   1.329       .  A
N210       Mn214   2.234       .  S
N211        C216   1.358       .  A
N212        N213   1.307       .  A
N212       Mn226   2.154       .  S
N213        C215   1.343       .  A
Mn214      Cl227   2.537       .  S
C215        C307   1.409       .  S
C216        C485   1.516       .  S
N217        N218   1.308   1_554  A
N217        N223   1.312       .  A
N217       Mn225   2.111       .  S
N218        C228   1.339   1_556  A
N219        N220   1.334       .  A
N219        N221   1.316       .  A
N219       Mn226   2.279       .  S
N220        C229   1.366       .  A
N221        N222   1.328   1_554  A
N221       Mn225   2.220       .  S
N222        C229   1.355   1_556  A
N223        N224   1.308       .  A
N223       Mn226   2.168       .  S
N224        C228   1.351       .  A
Mn225      Cl227   2.539       .  S
Mn226      Cl227   2.538       .  S
C229        C552   1.519   1_554  S
N230        N231   1.324   1_554  A
N230        N236   1.310       .  A
N230       Mn259   2.219       .  S
N231        C238   1.358   1_545  A
N232        N234   1.315       .  A
N232        N233   1.305   1_545  A
N232       Mn248   2.124       .  S
N233        C239   1.338   1_565  A
N234        N235   1.304   1_554  A
N234       Mn259   2.134       .  S
N235        C239   1.340   1_556  A
N236        N237   1.324   1_545  A
N236       Mn248   2.190       .  S
N237        C238   1.354   1_554  A
C238        C765   1.495       .  S
N240        N246   1.312       .  A
N240        N241   1.330       .  A
N240       Mn270   2.247       .  S
N241        C249   1.361       .  A
N242        N243   1.307   1_545  A
N242        N244   1.312       .  A
N242       Mn248   2.118       .  S
N243        C250   1.340   1_565  A
N244        N245   1.308       .  A
N244       Mn270   2.165       .  S
N245        C250   1.351       .  A
N246        N247   1.322   1_545  A
N246       Mn248   2.185       .  S
N247        C249   1.350   1_565  A
Mn248      Cl272   2.535       .  S
C249        C496   1.493   1_545  S
N251        N252   1.324   1_554  A
N251        N257   1.314       .  A
N251       Mn259   2.214       .  S
N252        C260   1.356   1_556  A
N253        N255   1.314       .  A
N253        N254   1.310       .  A
N253       Mn271   2.174       .  S
N254        C261   1.352       .  A
N255        N256   1.307   1_554  A
N255       Mn259   2.120       .  S
N256        C261   1.339   1_556  A
N257        N258   1.333       .  A
N257       Mn271   2.254       .  S
N258        C260   1.364       .  A
Mn259      Cl272   2.523       .  S
C260        C569   1.517   1_554  S
N262        N263   1.327       .  A
N262        N268   1.315       .  A
N262       Mn270   2.232       .  S
N263        C273   1.359       .  A
N264        N265   1.311       .  A
N264        N266   1.318       .  A
N264       Mn271   2.178       .  S
N265        C274   1.348       .  A
N266        N267   1.310       .  A
N266       Mn270   2.150       .  S
N267        C274   1.343       .  A
N268        N269   1.332       .  A
N268       Mn271   2.248       .  S
N269        C273   1.362       .  A
Mn270      Cl272   2.535       .  S
Mn271      Cl272   2.541       .  S
C273        C426   1.519       .  S
C274        C320   1.412       .  S
C275        C415   1.610       .  S
C275        C625   1.593       .  S
C275        C678   1.596       .  S
C275        C706   1.578       .  S
C276        C398   1.594       .  S
C276        C597   1.608       .  S
C276        C695   1.613       .  S
C276        C734   1.591       .  S
N277        N278   1.311       .  A
N277        N283   1.313       .  A
N277       Mn306   2.146       .  S
N278        C285   1.344       .  A
N279        N281   1.315       .  A
N279        N280   1.329       .  A
N279       Mn295   2.228       .  S
N280        C286   1.358       .  A
N281        N282   1.327       .  A
N281       Mn306   2.245       .  S
N282        C286   1.361       .  A
N283        N284   1.311       .  A
N283       Mn295   2.166       .  S
N284        C285   1.348       .  A
C286        C401   1.514       .  S
N287        N293   1.315       .  A
N287        N288   1.312       .  A
N287       Mn317   2.150       .  S
N288        C296   1.343       .  A
N289        N290   1.328       .  A
N289        N291   1.314       .  A
N289       Mn295   2.222       .  S
N290        C297   1.358       .  A
N291        N292   1.326       .  A
N291       Mn317   2.232       .  S
N292        C297   1.360       .  A
N293        N294   1.312       .  A
N293       Mn295   2.180       .  S
N294        C296   1.349       .  A
Mn295      Cl319   2.538       .  S
C296        C352   1.419       .  S
C297        C384   1.510       .  S
N298        N299   1.310       .  A
N298        N304   1.315       .  A
N298       Mn306   2.146       .  S
N299        C307   1.343       .  A
N300        N302   1.316       .  A
N300        N301   1.325       .  A
N300       Mn318   2.215       .  S
N301        C308   1.354       .  A
N302        N303   1.328       .  A
N302       Mn306   2.237       .  S
N303        C308   1.358       .  A
N304        N305   1.307       .  A
N304       Mn318   2.145       .  S
N305        C307   1.342       .  A
Mn306      Cl319   2.541       .  S
C308        C373   1.495       .  S
N309        N310   1.307       .  A
N309        N315   1.313       .  A
N309       Mn317   2.149       .  S
N310        C320   1.344       .  A
N311        N312   1.328       .  A
N311        N313   1.315       .  A
N311       Mn318   2.224       .  S
N312        C321   1.358       .  A
N313        N314   1.327       .  A
N313       Mn317   2.244       .  S
N314        C321   1.361       .  A
N315        N316   1.313       .  A
N315       Mn318   2.152       .  S
N316        C320   1.346       .  A
Mn317      Cl319   2.536       .  S
Mn318      Cl319   2.542       .  S
C321        C412   1.512       .  S
N322        N323   1.309       .  A
N322        N328   1.313       .  A
N322       Mn351   2.162       .  S
N323        C330   1.346       .  A
N324        N326   1.315       .  A
N324        N325   1.326       .  A
N324       Mn340   2.235       .  S
N325        C331   1.361       .  A
N326        N327   1.326       .  A
N326       Mn351   2.217       .  S
N327        C331   1.355       .  A
N328        N329   1.311       .  A
N328       Mn340   2.143       .  S
N329        C330   1.344       .  A
C331        C527   1.504       .  S
N332        N338   1.315       .  A
N332        N333   1.310       .  A
N332       Mn362   2.148       .  S
N333        C341   1.343       .  A
N334        N335   1.323       .  A
N334        N336   1.315       .  A
N334       Mn340   2.222       .  S
N335        C342   1.356       .  A
N336        N337   1.330       .  A
N336       Mn362   2.235       .  S
N337        C342   1.360       .  A
N338        N339   1.310       .  A
N338       Mn340   2.153       .  S
N339        C341   1.344       .  A
Mn340      Cl364   2.539       .  S
C342        C793   1.507       .  S
N343        N344   1.312       .  A
N343        N349   1.314       .  A
N343       Mn351   2.148       .  S
N344        C352   1.343       .  A
N345        N347   1.313       .  A
N345        N346   1.327       .  A
N345       Mn363   2.232       .  S
N346        C353   1.359       .  A
N347        N348   1.325       .  A
N347       Mn351   2.216       .  S
N348        C353   1.357       .  A
N349        N350   1.311       .  A
N349       Mn363   2.175       .  S
N350        C352   1.349       .  A
Mn351      Cl364   2.539       .  S
C353        C580   1.506       .  S
N354        N355   1.310       .  A
N354        N360   1.313       .  A
N354       Mn362   2.136       .  S
N355        C365   1.343       .  A
N356        N357   1.329       .  A
N356        N358   1.316       .  A
N356       Mn363   2.235       .  S
N357        C366   1.359       .  A
N358        N359   1.326       .  A
N358       Mn362   2.234       .  S
N359        C366   1.359       .  A
N360        N361   1.309       .  A
N360       Mn363   2.162       .  S
N361        C365   1.346       .  A
Mn362      Cl364   2.546       .  S
Mn363      Cl364   2.528       .  S
C366        C471   1.513       .  S
C367        C387   1.595       .  S
C367        C636   1.614       .  S
C367        C653   1.590       .  S
C367        C751   1.601       .  S
C368        C370   1.596       .  S
C368        C608   1.575       .  S
C368        C667   1.585       .  S
C368        C723   1.605       .  S
C369        C370   1.423       .  A
C369        C374   1.405       .  A
C369        H376   1.073       .  S
C370        C371   1.437       .  A
C371        C372   1.416       .  A
C371        N378   1.432       .  S
C372        C373   1.402       .  A
C372        H377   1.082       .  S
C373        C374   1.403       .  A
C374        N375   1.429       .  S
N375        O379   1.262       .  A
N375        O380   1.262       .  A
N378        O382   1.262       .  A
N378        O381   1.262       .  A
C383        C384   1.400       .  A
C383        C388   1.411       .  A
C383        H390   1.083       .  S
C384        C385   1.412       .  A
C385        C386   1.413       .  A
C385        N392   1.428       .  S
C386        C387   1.421       .  A
C386        H391   1.074       .  S
C387        C388   1.438       .  A
C388        N389   1.429       .  S
N389        O393   1.262       .  A
N389        O394   1.262       .  A
N392        O396   1.262       .  A
N392        O395   1.262       .  A
C397        C398   1.421       .  A
C397        C402   1.415       .  A
C397        H404   1.083       .  S
C398        C399   1.443       .  A
C399        C400   1.415       .  A
C399        N406   1.432       .  S
C400        C401   1.400       .  A
C400        H405   1.084       .  S
C401        C402   1.414       .  A
C402        N403   1.428       .  S
N403        O407   1.262       .  A
N403        O408   1.262       .  A
N406        O410   1.261       .  A
N406        O409   1.261       .  A
C411        C412   1.400       .  A
C411        C416   1.413       .  A
C411        H418   1.083       .  S
C412        C413   1.412       .  A
C413        C414   1.414       .  A
C413        N420   1.429       .  S
C414        C415   1.424       .  A
C414        H419   1.076       .  S
C415        C416   1.438       .  A
C416        N417   1.428       .  S
N417        O421   1.262       .  A
N417        O422   1.262       .  A
N420        O424   1.262       .  A
N420        O423   1.262       .  A
C425        C426   1.401       .  A
C425        C430   1.416       .  A
C425        H432   1.083       .  S
C426        C427   1.411       .  A
C427        C428   1.419       .  A
C427        N434   1.426       .  S
C428        C429   1.425       .  A
C428        H433   1.078       .  S
C429        C430   1.438       .  A
C430        N431   1.426       .  S
N431        O435   1.263       .  A
N431        O436   1.262       .  A
N434        O438   1.261       .  A
N434        O437   1.261       .  A
C439        C440   1.407       .  A
C439        C444   1.417       .  A
C439        H446   1.083       .  S
C440        C441   1.413       .  A
C441        C442   1.419       .  A
C441        N448   1.428   1_655  S
C442        C443   1.427       .  A
C442        H447   1.077       .  S
C443        C444   1.435       .  A
C444        N445   1.432       .  S
N445        O449   1.262       .  A
N445        O450   1.262       .  A
N448        O452   1.262       .  A
N448        O451   1.262       .  A
C453        C454   1.422       .  A
C453        C458   1.414       .  A
C453        H460   1.083       .  S
C454        C455   1.446       .  A
C455        C456   1.413       .  A
C455        N462   1.434       .  S
C456        C457   1.397       .  A
C456        H461   1.084       .  S
C457        C458   1.409       .  A
C458        N459   1.428   1_655  S
N459        O463   1.261       .  A
N459        O464   1.262       .  A
N462        O466   1.261       .  A
N462        O465   1.261       .  A
C467        C468   1.419       .  A
C467        C472   1.414       .  A
C467        H474   1.075       .  S
C468        C469   1.436       .  A
C469        C470   1.412       .  A
C469        N476   1.432       .  S
C470        C471   1.404       .  A
C470        H475   1.083       .  S
C471        C472   1.413       .  A
C472        N473   1.428       .  S
N473        O477   1.262       .  A
N473        O478   1.262       .  A
N476        O480   1.261       .  A
N476        O479   1.262       .  A
C481        C482   1.422       .  A
C481        C486   1.412       .  A
C481        H488   1.078       .  S
C482        C483   1.434       .  A
C483        C484   1.418       .  A
C483        N490   1.431       .  S
C484        C485   1.406       .  A
C484        H489   1.083       .  S
C485        C486   1.411       .  A
C486        N487   1.429       .  S
N487        O491   1.262       .  A
N487        O492   1.262       .  A
N490        O494   1.262       .  A
N490        O493   1.262       .  A
C495        C496   1.402       .  A
C495        C500   1.415       .  A
C495        H502   1.083   1_565  S
C496        C497   1.404       .  A
C497        C498   1.404       .  A
C497        N504   1.429       .  S
C498        C499   1.421       .  A
C498        H503   1.079       .  S
C499        C500   1.434       .  A
C500        N501   1.431       .  S
N501        O505   1.262       .  A
N501        O506   1.262       .  A
N504        O508   1.261       .  A
N504        O507   1.261       .  A
C509        C510   1.417       .  A
C509        C514   1.408       .  A
C509        H516   1.078       .  S
C510        C511   1.435       .  A
C511        C512   1.412       .  A
C511        N518   1.432       .  S
C512        C513   1.403       .  A
C512        H517   1.083       .  S
C513        C514   1.412       .  A
C514        N515   1.428   1_565  S
N515        O519   1.262       .  A
N515        O520   1.262       .  A
N518        O522   1.262       .  A
N518        O521   1.262       .  A
C523        C524   1.417       .  A
C523        C528   1.414       .  A
C523        H530   1.079       .  S
C524        C525   1.438       .  A
C525        C526   1.406       .  A
C525        N532   1.432       .  S
C526        C527   1.398       .  A
C526        H531   1.083       .  S
C527        C528   1.414       .  A
C528        N529   1.428       .  S
N529        O533   1.262       .  A
N529        O534   1.262       .  A
N532        O536   1.262       .  A
N532        O535   1.262       .  A
C537        C538   1.402       .  A
C537        C542   1.414       .  A
C537        H544   1.083       .  S
C538        C539   1.413       .  A
C539        C540   1.417       .  A
C539        N546   1.428       .  S
C540        C541   1.419       .  A
C540        H545   1.077       .  S
C541        C542   1.439       .  A
C542        N543   1.433       .  S
N543        O547   1.261       .  A
N543        O548   1.263       .  A
N546        O550   1.262       .  A
N546        O549   1.262       .  A
C551        C552   1.409       .  A
C551        C556   1.427       .  A
C551        H558   1.083   1_556  S
C552        C553   1.406       .  A
C553        C554   1.411       .  A
C553        N560   1.426       .  S
C554        C555   1.425       .  A
C554        H559   1.077       .  S
C555        C556   1.434       .  A
C556        N557   1.428       .  S
N557        O561   1.262       .  A
N557        O562   1.261       .  A
N560        O564   1.262       .  A
N560        O563   1.259       .  A
C565        C566   1.422       .  A
C565        C570   1.413       .  A
C565        H572   1.083       .  S
C566        C567   1.441       .  A
C567        C568   1.415       .  A
C567        N574   1.432       .  S
C568        C569   1.404       .  A
C568        H573   1.083       .  S
C569        C570   1.411       .  A
C570        N571   1.426   1_556  S
N571        O575   1.261   1_554  A
N571        O576   1.262       .  A
N574        O578   1.261       .  A
N574        O577   1.262       .  A
C579        C580   1.404       .  A
C579        C584   1.412       .  A
C579        H586   1.083       .  S
C580        C581   1.410       .  A
C581        C582   1.409       .  A
C581        N588   1.428       .  S
C582        C583   1.422       .  A
C582        H587   1.077       .  S
C583        C584   1.436       .  A
C584        N585   1.432       .  S
N585        O589   1.262       .  A
N585        O590   1.262       .  A
N588        O592   1.262       .  A
N588        O591   1.262       .  A
C593        C594   1.404       .  A
C593        C598   1.420       .  A
C593        H600   1.083       .  S
C594        C595   1.415       .  A
C595        C596   1.416       .  A
C595        N602   1.428       .  S
C596        C597   1.422       .  A
C596        H601   1.076       .  S
C597        C598   1.437       .  A
C598        N599   1.426       .  S
N599        O603   1.262       .  A
N599        O604   1.262       .  A
N602        O606   1.262       .  A
N602        O605   1.262       .  A
C607        C608   1.415       .  A
C607        C612   1.406       .  A
C607        H614   1.074       .  S
C608        C609   1.437       .  A
C609        C610   1.411       .  A
C609        N616   1.433       .  S
C610        C611   1.401       .  A
C610        H615   1.083   1_554  S
C611        C612   1.411       .  A
C612        N613   1.429   1_545  S
N613        O617   1.262       .  A
N613        O618   1.262       .  A
N616        O620   1.262       .  A
N616        O619   1.261       .  A
C621        C622   1.397       .  A
C621        C626   1.411       .  A
C621        H628   1.084       .  S
C622        C623   1.410       .  A
C623        C624   1.410       .  A
C623        N630   1.424   1_554  S
C624        C625   1.418       .  A
C624        H629   1.083       .  S
C625        C626   1.445       .  A
C626        N627   1.432       .  S
N627        O631   1.260       .  A
N627        O632   1.262       .  A
N630        O634   1.261   1_556  A
N630        O633   1.262       .  A
C635        C636   1.427       .  A
C635        C640   1.417   1_545  A
C635        H642   1.076       .  S
C636        C637   1.437       .  A
C637        C638   1.416       .  A
C637        N644   1.428       .  S
C638        C639   1.403       .  A
C638        H643   1.083       .  S
C639        C640   1.410   1_545  A
C640        N641   1.428       .  S
N641        O645   1.262       .  A
N641        O646   1.262       .  A
N644        O648   1.262       .  A
N644        O647   1.263       .  A
C649        C650   1.399       .  A
C649        C654   1.415       .  A
C649        H656   1.084       .  S
C650        C651   1.409       .  A
C651        C652   1.414       .  A
C651        N658   1.428       .  S
C652        C653   1.421       .  A
C652        H657   1.083       .  S
C653        C654   1.444       .  A
C654        N655   1.433       .  S
N655        O659   1.261       .  A
N655        O660   1.262       .  A
N658        O662   1.262       .  A
N658        O661   1.262       .  A
C663        C664   1.397   1_556  A
C663        C668   1.410   1_556  A
C663        H670   1.084       .  S
C664        C665   1.411       .  A
C665        C666   1.405       .  A
C665        N672   1.427   1_455  S
C666        C667   1.416       .  A
C666        H671   1.083       .  S
C667        C668   1.443       .  A
C668        N669   1.433   1_554  S
N669        O673   1.262       .  A
N669        O674   1.260       .  A
N672        O676   1.262   1_655  A
N672        O675   1.261       .  A
C677        C678   1.423       .  A
C677        C682   1.408       .  A
C677        H684   1.074       .  S
C678        C679   1.438       .  A
C679        C680   1.416   1_554  A
C679        N686   1.429       .  S
C680        C681   1.398   1_556  A
C680        H685   1.083       .  S
C681        C682   1.404       .  A
C682        N683   1.428       .  S
N683        O687   1.262       .  A
N683        O688   1.261       .  A
N686        O690   1.262   1_554  A
N686        O689   1.262       .  A
C691        C692   1.402       .  A
C691        C696   1.422       .  A
C691        H698   1.082       .  S
C692        C693   1.408       .  A
C693        C694   1.417       .  A
C693        N700   1.427   1_455  S
C694        C695   1.422       .  A
C694        H699   1.066       .  S
C695        C696   1.445       .  A
C696        N697   1.431       .  S
N697        O701   1.262       .  A
N697        O702   1.262       .  A
N700        O704   1.262       .  A
N700        O703   1.262   1_655  A
C705        C706   1.420       .  A
C705        C710   1.407       .  A
C705        H712   1.083       .  S
C706        C707   1.437       .  A
C707        C708   1.412       .  A
C707        N714   1.431       .  S
C708        C709   1.402       .  A
C708        H713   1.083       .  S
C709        C710   1.410       .  A
C710        N711   1.429       .  S
N711        O715   1.262       .  A
N711        O716   1.262       .  A
N714        O718   1.261       .  A
N714        O717   1.262       .  A
C719        C720   1.399       .  A
C719        C724   1.417       .  A
C719        H726   1.083   1_445  S
C720        C721   1.403       .  A
C721        C722   1.408       .  A
C721        N728   1.428       .  S
C722        C723   1.424       .  A
C722        H727   1.075       .  S
C723        C724   1.438       .  A
C724        N725   1.427       .  S
N725        O729   1.262       .  A
N725        O730   1.262       .  A
N728        O732   1.261       .  A
N728        O731   1.262       .  A
C733        C734   1.420       .  A
C733        C738   1.415       .  A
C733        H740   1.068       .  S
C734        C735   1.435       .  A
C735        C736   1.416       .  A
C735        N742   1.433       .  S
C736        C737   1.406       .  A
C736        H741   1.082       .  S
C737        C738   1.411       .  A
C738        N739   1.430   1_455  S
N739        O743   1.262       .  A
N739        O744   1.262       .  A
N742        O746   1.261       .  A
N742        O745   1.262       .  A
C747        C748   1.402       .  A
C747        C752   1.412       .  A
C747        H754   1.083       .  S
C748        C749   1.413       .  A
C749        C750   1.416       .  A
C749        N756   1.428   1_545  S
C750        C751   1.425       .  A
C750        H755   1.083       .  S
C751        C752   1.442       .  A
C752        N753   1.430       .  S
N753        O757   1.262       .  A
N753        O758   1.261       .  A
N756        O760   1.261       .  A
N756        O759   1.262       .  A
C761        C762   1.418       .  A
C761        C766   1.406       .  A
C761        H768   1.083       .  S
C762        C763   1.444       .  A
C763        C764   1.407       .  A
C763        N770   1.434       .  S
C764        C765   1.397       .  A
C764        H769   1.084   1_565  S
C765        C766   1.410       .  A
C766        N767   1.430       .  S
N767        O771   1.262       .  A
N767        O772   1.262   1_556  A
N770        O774   1.261   1_565  A
N770        O773   1.260   1_565  A
C775        C776   1.419       .  A
C775        C780   1.401       .  A
C775        H782   1.074       .  S
C776        C777   1.437       .  A
C777        C778   1.413       .  A
C777        N784   1.431       .  S
C778        C779   1.399       .  A
C778        H783   1.083   1_655  S
C779        C780   1.401       .  A
C780        N781   1.428       .  S
N781        O785   1.262       .  A
N781        O786   1.262       .  A
N784        O788   1.261       .  A
N784        O787   1.262       .  A
C789        C790   1.426       .  A
C789        C794   1.414       .  A
C789        H796   1.076       .  S
C790        C791   1.437       .  A
C791        C792   1.407       .  A
C791        N798   1.426       .  S
C792        C793   1.398       .  A
C792        H797   1.083       .  S
C793        C794   1.409       .  A
C794        N795   1.428       .  S
N795        O799   1.262       .  A
N795        O800   1.262       .  A
N798        O802   1.262       .  A
N798        O801   1.263       .  A
C803        C804   1.422       .  A
C803        C808   1.410       .  A
C803        H810   1.083       .  S
C804        C805   1.442       .  A
C805        C806   1.413       .  A
C805        N812   1.431       .  S
C806        C807   1.400       .  A
C806        H811   1.084   1_556  S
C807        C808   1.411       .  A
C808        N809   1.427   1_655  S
N809        O813   1.262   1_455  A
N809        O814   1.262       .  A
N812        O816   1.261   1_556  A
N812        O815   1.262   1_556  A
