geometry optimzed in LAMMPS
_audit_creation_date              2020-11-30 
_audit_creation_method            'lammps2cif' 
_symmetry_space_group_name_H-M    'P1' 
_symmetry_Int_Tables_number       1 
_symmetry_cell_setting            triclinic 
loop_ 
_symmetry_equiv_pos_as_xyz 
  x,y,z 
_cell_length_a                    29.13301812 
_cell_length_b                    30.88053029076739 
_cell_length_c                    68.83028252840838 
_cell_angle_alpha                 88.87062283931182 
_cell_angle_beta                  90.91269772664292 
_cell_angle_gamma                 125.30000462970632 
loop_ 
_atom_site_label 
_atom_site_type_symbol 
_atom_site_fract_x 
_atom_site_fract_y 
_atom_site_fract_z 
_atom_site_charge 
O1          O  0.32557253  0.28278667  0.98332621    -0.79300
O2          O  0.29960476  0.10288109  0.03757380    -0.63900
O3          O  0.34288137  0.21487782  0.00103782    -1.10500
C4          C  0.26423122  0.06008516  0.96417528     1.07600
O5          O  0.30781782  0.04837178  0.01768769    -0.77200
O6          O  0.39984926  0.13754114  0.97400028    -0.64700
Ni7        Ni  0.36565509  0.28218444  0.00593058     1.34900
C8          C  0.41276386  0.18075108  0.96585582     0.86400
O9          O  0.39615370  0.20267593  0.02895800    -0.77700
O10         O  0.40985538  0.28314644  0.02823071    -0.88000
C11         C  0.29735215  0.05992236  0.03423763     0.85900
O12         O  0.30190083  0.25948284  0.02184688    -0.66200
O13         O  0.28869546  0.04750122  0.97673304    -0.85500
C14         C  0.28702436  0.23048559  0.03701188     0.86800
C15         C  0.42266049  0.25133392  0.03439347     1.08300
H16         H  0.27643954  0.09588390  0.00002906     0.40100
O17         O  0.31549666  0.12558155  0.99912348    -1.08100
O18         O  0.38458883  0.19943306  0.96888326    -0.64800
Ni19       Ni  0.31115046  0.16706683  0.98069324     1.26300
O20         O  0.30285824  0.19916465  0.04013125    -0.65000
O21         O  0.27542039  0.10767005  0.96278845    -0.77300
C22         C  0.30996112  0.25795639  0.96715348     0.86200
O23         O  0.30382667  0.21365565  0.96415593    -0.64500
Ni24       Ni  0.35082742  0.09279601  0.99539557     1.27400
Ni25       Ni  0.31822875  0.16298675  0.02063356     1.26100
H26         H  0.38092136  0.22630408  0.99891310     0.40700
O27         O  0.30900339  0.04182856  0.48180152    -0.79300
O28         O  0.31224441  0.19991194  0.53789921    -0.63900
O29         O  0.32606263  0.12024184  0.50127070    -1.10500
C30         C  0.43052146  0.25653229  0.46881648     1.07600
O31         O  0.30731743  0.25691466  0.51806078    -0.77200
O32         O  0.29168017  0.23937822  0.47842846    -0.64700
Ni33       Ni  0.35991566  0.08552415  0.50280473     1.34900
C34         C  0.28432048  0.21399037  0.46300533     0.86400
O35         O  0.29066495  0.09948755  0.53806300    -0.77700
O36         O  0.30478294  0.04190101  0.52361254    -0.88000
C37         C  0.29988807  0.23336198  0.53468007     0.85900
O38         O  0.41584614  0.13006220  0.52226872    -0.66200
O39         O  0.40981952  0.28216064  0.47475226    -0.85500
C40         C  0.42743565  0.17012714  0.53185503     0.86800
C41         C  0.28283854  0.05393407  0.53695526     1.08300
H42         H  0.38951211  0.22484416  0.50305002     0.40100
O43         O  0.35020346  0.20866713  0.50056542    -1.08100
O44         O  0.31291939  0.19507170  0.46034471    -0.64800
Ni45       Ni  0.32822585  0.16006565  0.48028394     1.26300
O46         O  0.39666074  0.18744836  0.53110857    -0.65000
O47         O  0.40728014  0.20664564  0.47291412    -0.77300
C48         C  0.30138705  0.05812395  0.46543100     0.86200
O49         O  0.31090574  0.10440132  0.46256235    -0.64500
Ni50       Ni  0.35626408  0.26961038  0.49592108     1.27400
Ni51       Ni  0.32180974  0.15821978  0.52036734     1.26100
H52         H  0.28677247  0.09095027  0.50056845     0.40700
O53         O  0.40694307  0.07039331  0.72915119    -0.72800
O54         O  0.38914085  0.46545870  0.76759224    -0.72800
O55         O  0.39194384  0.47450977  0.72742892    -0.72900
O56         O  0.40332633  0.06213664  0.76914680    -0.72900
O57         O  0.31065406  0.02307077  0.76829268    -0.72900
O58         O  0.29933660  0.43593710  0.72702037    -0.72800
O59         O  0.29706798  0.42796821  0.76647593    -0.72800
O60         O  0.31423339  0.03082933  0.72812389    -0.72900
Ni61       Ni  0.40376231  0.51912025  0.74893048     1.25400
Ni62       Ni  0.30482718  0.47839331  0.74795580     1.25400
C63         C  0.36363762  0.06469536  0.72130591     0.89400
C64         C  0.33958858  0.43207653  0.77430290     0.89300
C65         C  0.34319220  0.44311453  0.71961150     0.89300
C66         C  0.35861271  0.05345579  0.77658884     0.89500
O67         O  0.10635300  0.05736373  0.72792312    -0.72800
O68         O  0.04890161  0.09303463  0.77054356    -0.72800
O69         O  0.04469227  0.09580366  0.73026018    -0.72900
O70         O  0.10961491  0.05445062  0.76846926    -0.72900
O71         O  0.18827663  0.13646960  0.76814820    -0.72900
O72         O  0.12313402  0.17783747  0.73032412    -0.72800
O73         O  0.12753181  0.17480797  0.77009297    -0.72800
O74         O  0.18451273  0.13986118  0.72775927    -0.72900
Ni75       Ni  0.07462563  0.07211272  0.74925628     1.25400
Ni76       Ni  0.15865255  0.15999205  0.74905249     1.25400
C77         C  0.15294996  0.09415359  0.71992123     0.89400
C78         C  0.08091826  0.13906731  0.77823624     0.89300
C79         C  0.07499238  0.14279145  0.72298217     0.89300
C80         C  0.15649235  0.09070212  0.77627544     0.89500
O81         O  0.07229714  0.40441567  0.77034534    -0.72800
O82         O  0.45831776  0.35150069  0.73228318    -0.72800
O83         O  0.46398513  0.35191561  0.77198081    -0.72900
O84         O  0.06954399  0.40729778  0.73094899    -0.72900
O85         O  0.05762340  0.32910717  0.73027567    -0.72900
O86         O  0.45229676  0.27379079  0.77184240    -0.72800
O87         O  0.44663572  0.27363001  0.73166789    -0.72800
O88         O  0.06047465  0.32645198  0.76975971    -0.72900
Ni89       Ni  0.51700861  0.37904229  0.75121176     1.25400
Ni90       Ni  0.50452077  0.29548430  0.75099974     1.25400
C91         C  0.08398732  0.37272170  0.77693466     0.89400
C92         C  0.43633441  0.30603876  0.72463442     0.89300
C93         C  0.44400339  0.30615811  0.77953118     0.89300
C94         C  0.07890687  0.37568357  0.72331136     0.89500
C95         C  0.46887793  0.18855536  0.54819430     0.03900
C96         C  0.02411179  0.20253546  0.54758466     0.03900
C97         C  0.04900484  0.20292163  0.56545309    -0.16600
C98         C  0.02170657  0.19339012  0.58319623     0.03900
C99         C  0.47019178  0.18023145  0.58369764     0.03900
C100        C  0.44246806  0.17660360  0.56649314    -0.16600
H101        H  0.39826527  0.16107329  0.56737309     0.05900
H102        H  0.09129791  0.21275985  0.56569034     0.05900
C103        C  0.24866443  0.01571022  0.55307921     0.03900
C104        C  0.21987368  0.45694085  0.55292807     0.03900
C105        C  0.20012964  0.42854943  0.57072599    -0.16600
C106        C  0.20081882  0.45281529  0.58770991     0.03900
C107        C  0.21885612  0.00824692  0.58700139     0.03900
C108        C  0.24441771  0.03830292  0.57018363    -0.16600
H109        H  0.26136408  0.08007237  0.57069642     0.05900
H110        H  0.18155648  0.38637089  0.57143633     0.05900
C111        C  0.30557063  0.28480474  0.94987001     0.03900
C112        C  0.28471183  0.31712139  0.94939196     0.03900
C113        C  0.28443431  0.33979153  0.93135900    -0.16600
C114        C  0.30531058  0.33256410  0.91450941     0.03900
C115        C  0.32720488  0.30224412  0.91529638     0.03900
C116        C  0.32692065  0.27875552  0.93268702    -0.16600
H117        H  0.34426537  0.25569928  0.93272962     0.05900
H118        H  0.26777346  0.36337435  0.93033642     0.05900
C119        C  0.24951933  0.27061094  0.55195912     0.03900
C120        C  0.28188550  0.24870786  0.55211598     0.03900
C121        C  0.30292997  0.24436119  0.57029610    -0.16600
C122        C  0.29944043  0.26676751  0.58713733     0.03900
C123        C  0.27862714  0.29792325  0.58577089     0.03900
C124        C  0.25197833  0.29778970  0.56873371    -0.16600
H125        H  0.23273484  0.31911473  0.56877796     0.05900
H126        H  0.32399786  0.22477424  0.57144903     0.05900
C127        C  0.18969360  0.46173786  0.94924180     0.03900
C128        C  0.22475251  0.02078662  0.94883455     0.03900
C129        C  0.22348260  0.04586302  0.93151849    -0.16600
C130        C  0.20062938  0.01885365  0.91421104     0.03900
C131        C  0.17359776  0.46274067  0.91398813     0.03900
C132        C  0.16811825  0.43557984  0.93129535    -0.16600
H133        H  0.14613908  0.39282017  0.93070795     0.05900
H134        H  0.24414034  0.08839186  0.93077263     0.05900
C135        C  0.01026352  0.23887836  0.94690624     0.03900
C136        C  0.44989638  0.20062350  0.94831337     0.03900
C137        C  0.41916295  0.17328913  0.93138478    -0.16600
C138        C  0.44551051  0.17738351  0.91401650     0.03900
C139        C  0.00449603  0.20895668  0.91307429     0.03900
C140        C  0.03589792  0.24033649  0.92910992    -0.16600
H141        H  0.08112926  0.26661172  0.92743911     0.05900
H142        H  0.37357329  0.14660081  0.93187290     0.05900
O143        O  0.18525672  0.22162284  0.48142319    -0.79300
O144        O  0.18918615  0.37617678  0.53733947    -0.63900
O145        O  0.14451380  0.27186286  0.49875220    -1.10500
C146        C  0.21292940  0.42857274  0.46260054     1.07600
O147        O  0.19269221  0.44049090  0.51898127    -0.77200
O148        O  0.08226632  0.35474450  0.47861406    -0.64700
Ni149      Ni  0.13693782  0.21001605  0.50353030     1.34900
C150        C  0.06871360  0.31476332  0.46849243     0.86400
O151        O  0.08952430  0.27545709  0.52678540    -0.77700
O152        O  0.08432604  0.19858501  0.52493968    -0.88000
C153        C  0.20136548  0.42355393  0.53504647     0.85900
O154        O  0.20182442  0.23903277  0.52076263    -0.66200
O155        O  0.19363377  0.44114760  0.47675135    -0.85500
C156        C  0.20993529  0.26470119  0.53614494     0.86800
C157        C  0.06515080  0.22541834  0.53101327     1.08300
H158        H  0.21120105  0.39004237  0.49890289     0.40100
O159        O  0.17161135  0.36146201  0.49838811    -1.08100
O160        O  0.09770659  0.29536467  0.46867324    -0.64800
Ni161      Ni  0.17314615  0.32263898  0.47884291     1.26300
O162        O  0.18173345  0.28381089  0.53890483    -0.65000
O163        O  0.20425300  0.38246484  0.46096508    -0.77300
C164        C  0.19282091  0.24472731  0.46472497     0.86200
O165        O  0.18122022  0.27902108  0.46129219    -0.64500
Ni166      Ni  0.13969999  0.39786722  0.49794971     1.27400
Ni167      Ni  0.16852108  0.32042876  0.51917730     1.26100
H168        H  0.10526826  0.25643155  0.49646379     0.40700
O169        O  0.03535500  0.30879171  0.01802733    -0.79300
O170        O  0.21610855  0.32619568  0.96254574    -0.63900
O171        O  0.11939805  0.32579555  0.99826076    -1.10500
C172        C  0.25209836  0.43360608  0.03262233     1.07600
O173        O  0.28739121  0.34216269  0.98264685    -0.77200
O174        O  0.26799151  0.32188003  0.02208158    -0.64700
Ni175      Ni  0.07841578  0.35334230  0.99520035     1.34900
C176        C  0.23877339  0.30826961  0.03744647     0.86400
O177        O  0.10262486  0.29320558  0.96094799    -0.77700
O178        O  0.03395526  0.29542073  0.97567697    -0.88000
C179        C  0.26077165  0.32794166  0.96618508     0.85900
O180        O  0.12287254  0.40476406  0.97415257    -0.66200
O181        O  0.28792573  0.42387731  0.02681639    -0.85500
C182        C  0.17008332  0.42234758  0.96606081     0.86800
C183        C  0.05058489  0.27757053  0.96242755     1.08300
H184        H  0.22674847  0.39354190  0.99779043     0.40100
O185        O  0.21617718  0.35805557  0.99998576    -1.08100
O186        O  0.20551970  0.32277072  0.03995582    -0.64800
Ni187      Ni  0.16275833  0.33178722  0.01986730     1.26300
O188        O  0.19348626  0.39822032  0.96836194    -0.65000
O189        O  0.19999084  0.40524240  0.02725424    -0.77300
C190        C  0.05234993  0.30213480  0.03472196     0.86200
O191        O  0.10088549  0.30982041  0.03744986    -0.64500
Ni192      Ni  0.28793075  0.38115146  0.00503614     1.27400
Ni193      Ni  0.16509360  0.32798237  0.97937373     1.26100
H194        H  0.09042968  0.28810576  0.99908893     0.40700
O195        O  0.44644989  0.13568543  0.22946100    -0.72800
O196        O  0.06118959  0.21860995  0.26845451    -0.72800
O197        O  0.05832600  0.21764438  0.22851982    -0.72900
O198        O  0.44953677  0.14084134  0.26937491    -0.72900
O199        O  0.47205113  0.08317772  0.27169466    -0.72900
O200        O  0.07445011  0.15515837  0.22852810    -0.72800
O201        O  0.08017598  0.15819709  0.26788613    -0.72800
O202        O  0.46698451  0.07632866  0.23134609    -0.72900
Ni203      Ni  0.00427011  0.18263261  0.24872496     1.25400
Ni204      Ni  0.02288196  0.11664630  0.24951948     1.25400
C205        C  0.44206561  0.09477081  0.22300571     0.89400
C206        C  0.08377767  0.19678355  0.27601346     0.89300
C207        C  0.08198818  0.19743682  0.22131953     0.89300
C208        C  0.45029574  0.10544815  0.27899576     0.89500
O209        O  0.28724962  0.34800355  0.27027756    -0.72800
O210        O  0.33046572  0.29239062  0.23076878    -0.72800
O211        O  0.32907670  0.29130586  0.27104726    -0.72900
O212        O  0.28806876  0.35005345  0.23053446    -0.72900
O213        O  0.37468315  0.42462950  0.23101132    -0.72900
O214        O  0.41632367  0.36512982  0.27083692    -0.72800
O215        O  0.41724022  0.36725850  0.23082793    -0.72800
O216        O  0.37490052  0.42176681  0.27093437    -0.72900
Ni217      Ni  0.30567289  0.31763919  0.25057164     1.25400
Ni218      Ni  0.39888199  0.39725143  0.25084042     1.25400
C219        C  0.32534067  0.39218042  0.27803301     0.89400
C220        C  0.37984698  0.32220997  0.22344897     0.89300
C221        C  0.37771747  0.32132995  0.27898380     0.89300
C222        C  0.32516930  0.39631101  0.22357057     0.89500
C223        C  0.28832849  0.02592880  0.44786194     0.03900
C224        C  0.24634010  0.46760252  0.44644221     0.03900
C225        C  0.23732986  0.44592029  0.42768652    -0.16600
C226        C  0.27198607  0.47603591  0.41193797     0.03900
C227        C  0.31826376  0.03083036  0.41434555     0.03900
C228        C  0.32429682  0.05467856  0.43203794    -0.16600
H229        H  0.35916410  0.09602041  0.43371118     0.05900
H230        H  0.20333344  0.40469717  0.42527790     0.05900
O231        O  0.16233886  0.45709766  0.27046451    -0.72800
O232        O  0.20737900  0.04776312  0.22602812    -0.72800
O233        O  0.22561167  0.05996612  0.26613803    -0.72900
O234        O  0.14365420  0.44523965  0.23094589    -0.72900
O235        O  0.06630099  0.44325652  0.23371720    -0.72900
O236        O  0.14974026  0.06009230  0.26928848    -0.72800
O237        O  0.13289101  0.05007490  0.22950579    -0.72800
O238        O  0.08436558  0.45391788  0.27370980    -0.72900
Ni239      Ni  0.18749479  0.00152254  0.24831559     1.25400
Ni240      Ni  0.10660633  0.00248313  0.25132792     1.25400
C241        C  0.11844848  0.44324366  0.28006874     0.89400
C242        C  0.17451498  0.05980206  0.21945776     0.90700
C243        C  0.19952878  0.07615192  0.27478759     0.89300
C244        C  0.09397340  0.42852737  0.22523507     0.89500
C245        C  0.26680573  0.46770133  0.05015016     0.03900
C246        C  0.28679937  0.02402785  0.05117836     0.03900
C247        C  0.30592583  0.04968727  0.06930721    -0.16600
C248        C  0.30101027  0.02208511  0.08630941     0.03900
C249        C  0.27550690  0.46577579  0.08559673     0.03900
C250        C  0.25868412  0.44001012  0.06778486    -0.16600
H251        H  0.23955566  0.39782901  0.06766008     0.05900
H252        H  0.32827610  0.09240125  0.07014309     0.05900
C253        C  0.24463233  0.20795923  0.44709870     0.03900
C254        C  0.20931074  0.22699059  0.44745694     0.03900
C255        C  0.18437193  0.22746951  0.42980818    -0.16600
C256        C  0.19002513  0.20792885  0.41262440     0.03900
C257        C  0.21756157  0.18251867  0.41261574     0.03900
C258        C  0.24519768  0.18376583  0.42972790    -0.16600
H259        H  0.26856397  0.16644968  0.42920241     0.05900
H260        H  0.16012656  0.24399816  0.42914418     0.05900
C261        C  0.25345993  0.23552316  0.05219916     0.03900
C262        C  0.24420854  0.27710464  0.05361878     0.03900
C263        C  0.23459613  0.28796092  0.07232037    -0.16600
C264        C  0.22486271  0.25532028  0.08834183     0.03900
C265        C  0.21764198  0.20657983  0.08538866     0.03900
C266        C  0.23439804  0.19850638  0.06772711    -0.16600
H267        H  0.23467259  0.16371352  0.06647699     0.05900
H268        H  0.23551941  0.32299263  0.07454463     0.05900
C269        C  0.02898198  0.30092026  0.45179207     0.03900
C270        C  0.47163511  0.28083178  0.45234652     0.03900
C271        C  0.44546767  0.27719133  0.43437917    -0.16600
C272        C  0.47610396  0.29900947  0.41720447     0.03900
C273        C  0.03292438  0.32159888  0.41701410     0.03900
C274        C  0.05852403  0.32090429  0.43414588    -0.16600
H275        H  0.10358330  0.33988218  0.43393616     0.05900
H276        H  0.40023313  0.25708110  0.43367798     0.05900
C277        C  0.45957009  0.26768601  0.05176323     0.03900
C278        C  0.01632277  0.28844339  0.05253657     0.03900
C279        C  0.04416963  0.30334239  0.07096729    -0.16600
C280        C  0.01576220  0.29781277  0.08823736     0.03900
C281        C  0.46107925  0.27770266  0.08699996     0.03900
C282        C  0.43204096  0.26105046  0.06936344    -0.16600
H283        H  0.38746406  0.24433029  0.06928804     0.05900
H284        H  0.08896630  0.32158774  0.07192609     0.05900
C285        C  0.07964951  0.40739634  0.37251989     0.14300
C286        C  0.10292899  0.38667331  0.36135793     0.01300
C287        C  0.11358779  0.35209077  0.37053903     0.16200
C288        C  0.09572918  0.33417183  0.38962182     0.25700
C289        C  0.06792047  0.35145348  0.39983960    -0.40700
C290        C  0.06468061  0.39159378  0.39175520     0.32700
C291        C  0.11317544  0.39997438  0.34020216     0.01300
F292        F  0.13971195  0.33438391  0.36096718    -0.13000
F293        F  0.04147445  0.41160303  0.40193606    -0.13500
C294        C  0.13621077  0.45231668  0.33408365     0.16200
C295        C  0.13218994  0.46346179  0.31477248     0.25700
C296        C  0.11371893  0.42522646  0.30042051    -0.40600
C297        C  0.09448200  0.37336385  0.30597958     0.32600
C298        C  0.09221733  0.36023345  0.32587432     0.14300
F299        F  0.16043611  0.49265430  0.34698315    -0.13000
F300        F  0.07500359  0.33518695  0.29238491    -0.13500
F301        F  0.14372444  0.51141273  0.31020931    -0.15800
F302        F  0.06698167  0.30864709  0.33110432    -0.14300
F303        F  0.06688447  0.43979379  0.36452471    -0.14300
F304        F  0.60773511  0.30634234  0.39862181    -0.15800
C305        C  0.03776897  0.29574302  0.14181727     0.14300
C306        C  0.05928243  0.34838358  0.14699156     0.01300
C307        C  0.07853240  0.38648936  0.13178646     0.16200
C308        C  0.07055570  0.37122427  0.11220539     0.25700
C309        C  0.04581812  0.31808157  0.10729097    -0.40700
C310        C  0.03363261  0.28155512  0.12230106     0.32700
C311        C  0.06083779  0.36339628  0.16791048     0.01300
F312        F  0.10344146  0.43844310  0.13577300    -0.13000
F313        F  0.01130063  0.23022868  0.11800599    -0.13500
C314        C  0.07904724  0.34500347  0.18300035     0.16200
C315        C  0.08582905  0.36286887  0.20207886     0.25700
C316        C  0.07256915  0.39828602  0.20689764    -0.40600
C317        C  0.04965533  0.41334975  0.19236757     0.32600
C318        C  0.04451757  0.39670662  0.17312739     0.14300
F319        F  0.09267872  0.31118174  0.17929063    -0.13000
F320        F  0.03610802  0.44753652  0.19641856    -0.13500
F321        F  0.10719477  0.34678510  0.21577975    -0.15800
F322        F  0.02388966  0.41383354  0.15964837    -0.14300
F323        F  0.01615033  0.25645504  0.15537823    -0.14300
F324        F  0.08249396  0.40750989  0.09805309    -0.15800
C325        C  0.20780437  0.14732553  0.32025813     0.14300
C326        C  0.23203002  0.13064005  0.33349977     0.01300
C327        C  0.25737465  0.10723203  0.32606188     0.16200
C328        C  0.25372764  0.09610958  0.30613648     0.25700
C329        C  0.22291818  0.10675974  0.29324458    -0.40700
C330        C  0.20246156  0.13493646  0.30044893     0.32700
C331        C  0.22810768  0.13570312  0.35497463     0.01300
F332        F  0.28137197  0.09083776  0.33832508    -0.13000
F333        F  0.17469189  0.14811867  0.28850400    -0.13500
C334        C  0.17546491  0.11304960  0.36374883     0.16200
C335        C  0.17176604  0.12362532  0.38320571     0.25700
C336        C  0.22072941  0.15850823  0.39423009    -0.40600
C337        C  0.27297625  0.17643043  0.38607739     0.32600
C338        C  0.27646691  0.16491293  0.36670467     0.14300
F339        F  0.12749193  0.08134744  0.35331706    -0.13000
F340        F  0.32096079  0.20813543  0.39641824    -0.13500
F341        F  0.12020261  0.10164985  0.39104365    -0.15800
F342        F  0.32754836  0.18619851  0.35884600    -0.14300
F343        F  0.18862648  0.17522293  0.32666974    -0.14300
F344        F  0.27382919  0.06848104  0.30007793    -0.15800
C345        C  0.18823172  0.06506183  0.16472744     0.14300
C346        C  0.17240648  0.09876353  0.15906362     0.01300
C347        C  0.15701774  0.11942782  0.17361008     0.16200
C348        C  0.16055990  0.10930280  0.19332672     0.25700
C349        C  0.17928390  0.07794349  0.19899047    -0.40700
C350        C  0.19208345  0.05513614  0.18441731     0.32700
C351        C  0.17800061  0.11677111  0.13835892     0.01300
F352        F  0.13869827  0.14967149  0.16877064    -0.13000
F353        F  0.20478628  0.02034597  0.18919762    -0.13500
C354        C  0.13566629  0.11780962  0.12863832     0.16200
C355        C  0.14679173  0.14401829  0.11056828     0.25700
C356        C  0.19919582  0.16691737  0.10149121    -0.40600
C357        C  0.23843662  0.15995925  0.11008315     0.32600
C358        C  0.22916163  0.13799222  0.12872516     0.14300
F359        F  0.08455415  0.09547676  0.13692666    -0.13000
F360        F  0.28937307  0.18180988  0.10172094    -0.13500
F361        F  0.10761519  0.14938123  0.10236703    -0.15800
F362        F  0.27279243  0.14307850  0.13826002    -0.14300
F363        F  0.19847482  0.04050097  0.15110766    -0.14300
F364        F  0.14529160  0.12988655  0.20691277    -0.15800
C365        C  0.44172751  0.27517185  0.36395259     0.14300
C366        C  0.41659260  0.30181554  0.36019098     0.01300
C367        C  0.40458755  0.32234484  0.37582055     0.16200
C368        C  0.42022697  0.31828965  0.39485351     0.25700
C369        C  0.44700620  0.29275835  0.39840302    -0.40700
C370        C  0.45496495  0.26897006  0.38286450     0.32700
C371        C  0.40545336  0.30875810  0.33966149     0.01300
F372        F  0.38104492  0.34899219  0.37252303    -0.13000
F373        F  0.47895960  0.24256384  0.38591327    -0.13500
C374        C  0.35065334  0.28191454  0.33223938     0.16200
C375        C  0.34132389  0.28258960  0.31222285     0.25700
C376        C  0.38701570  0.31022029  0.29919809    -0.40600
C377        C  0.44189877  0.33799172  0.30687993     0.32600
C378        C  0.45064727  0.33796071  0.32686926     0.14300
F379        F  0.30629333  0.25620467  0.34442231    -0.13000
F380        F  0.48721632  0.36726540  0.29514546    -0.13500
F381        F  0.28784656  0.25985744  0.30583334    -0.15800
F382        F  0.50344766  0.36837062  0.33400791    -0.14300
F383        F  0.45416185  0.25584312  0.34903014    -0.14300
F384        F  0.41238100  0.34190934  0.40959041    -0.15800
C385        C  0.43290988  0.32904295  0.13050538     0.14300
C386        C  0.41281157  0.28664361  0.14402512     0.01300
C387        C  0.39937925  0.23791811  0.13716260     0.16200
C388        C  0.40861162  0.23257233  0.11768856     0.25700
C389        C  0.43219756  0.27609397  0.10482080    -0.40700
C390        C  0.44155873  0.32337632  0.11112769     0.32700
C391        C  0.40435170  0.29316282  0.16490240     0.01300
F392        F  0.37905924  0.19596086  0.14944178    -0.13000
F393        F  0.95749178  0.36284605  0.09843475    -0.13500
C394        C  0.37947388  0.31933913  0.16923584     0.16200
C395        C  0.37417285  0.32920420  0.18829073     0.25700
C396        C  0.38946282  0.31050320  0.20387421    -0.40600
C397        C  0.41309201  0.28292220  0.20007485     0.32600
C398        C  0.42109625  0.27471742  0.18068780     0.14300
F399        F  0.35884994  0.33474968  0.15504429    -0.13000
F400        F  0.42895596  0.26469566  0.21494637    -0.13500
F401        F  0.35376571  0.35771084  0.19158755    -0.15800
F402        F  0.44602942  0.24971795  0.17758125    -0.14300
F403        F  0.44757062  0.37737393  0.13609077    -0.14300
F404        F  0.39907930  0.18639168  0.11175881    -0.15800
C405        C  0.26559129  0.46772222  0.35754468     0.14300
C406        C  0.27504036  0.42845583  0.35446970     0.01300
C407        C  0.27394247  0.39933438  0.37075958     0.16200
C408        C  0.26751181  0.41134272  0.38952179     0.25700
C409        C  0.26114019  0.45224632  0.39244551    -0.40700
C410        C  0.25583759  0.47745209  0.37623360     0.32700
C411        C  0.28786152  0.41932829  0.33458433     0.01300
F412        F  0.28210243  0.36091746  0.36879888    -0.13000
F413        F  0.24783285  0.01781615  0.37757546    -0.13500
C414        C  0.33083042  0.41198861  0.33178827     0.16200
C415        C  0.34470268  0.40650382  0.31316516     0.25700
C416        C  0.31431927  0.40531060  0.29693661    -0.40600
C417        C  0.27078307  0.41121881  0.29946050     0.32600
C418        C  0.25822828  0.41900135  0.31804308     0.14300
F419        F  0.36274453  0.41406436  0.34683488    -0.13000
F420        F  0.24068647  0.40979047  0.28392008    -0.13500
F421        F  0.38847412  0.40274815  0.31098869    -0.15800
F422        F  0.21503086  0.42345464  0.31985259    -0.14300
F423        F  0.27059386  0.49999828  0.34281448    -0.14300
F424        F  0.27158375  0.38552569  0.40491698    -0.15800
C425        C  0.30531042  0.41150157  0.12958956     0.14300
C426        C  0.27796656  0.42054360  0.14404193     0.01300
C427        C  0.23981824  0.43240768  0.13807784     0.16200
C428        C  0.23278423  0.43913118  0.11838643     0.25700
C429        C  0.26515510  0.43633466  0.10425306    -0.40700
C430        C  0.29899172  0.41939475  0.10984939     0.32700
C431        C  0.29030303  0.41946110  0.16517927     0.01300
F432        F  0.21274261  0.44201242  0.15129941    -0.13000
F433        F  0.32990148  0.41532421  0.09642273    -0.13500
C434        C  0.34586582  0.44775868  0.17224420     0.16200
C435        C  0.35704726  0.44678553  0.19203164     0.25700
C436        C  0.31287470  0.41377867  0.20509791    -0.40600
C437        C  0.25723525  0.38767543  0.19826913     0.32600
C438        C  0.24638569  0.39074301  0.17857576     0.14300
F439        F  0.38989913  0.47503241  0.15996468    -0.13000
F440        F  0.21322149  0.35656898  0.21039629    -0.13500
F441        F  0.41154099  0.47241844  0.19778655    -0.15800
F442        F  0.19271709  0.36203152  0.17222784    -0.14300
F443        F  0.33987774  0.39700414  0.13455955    -0.14300
F444        F  0.19939817  0.45491557  0.11321463    -0.15800
C445        C  0.38707202  0.11262188  0.36919276     0.14300
C446        C  0.41614910  0.09180004  0.36256391     0.01300
C447        C  0.42455726  0.06147894  0.37581189     0.16200
C448        C  0.39608207  0.04474399  0.39362512     0.25700
C449        C  0.36151292  0.06059654  0.39896045    -0.40700
C450        C  0.36152221  0.09845583  0.38745318     0.32700
C451        C  0.43026386  0.09623092  0.34136748     0.01300
F452        F  0.45861955  0.04647570  0.37130404    -0.13000
F453        F  0.33062167  0.11631929  0.39277524    -0.13500
C454        C  0.45084179  0.14340432  0.33086613     0.16200
C455        C  0.45162987  0.14438187  0.31057275     0.25700
C456        C  0.43670264  0.09909040  0.30005283    -0.40600
C457        C  0.42141954  0.05327944  0.31057107     0.32600
C458        C  0.41736979  0.05167536  0.33092613     0.14300
F459        F  0.47341893  0.18957959  0.34031010    -0.13000
F460        F  0.41174465  0.01061365  0.30116410    -0.13500
F461        F  0.47157969  0.19134180  0.30135558    -0.15800
F462        F  0.40177369  0.00674014  0.34049139    -0.14300
F463        F  0.37853526  0.14262015  0.35727519    -0.14300
F464        F  0.39970118  0.01072198  0.40520721    -0.15800
C465        C  0.34787701  0.05110847  0.17877073     0.14300
C466        C  0.38859851  0.07001492  0.16383146     0.01300
C467        C  0.44409295  0.08955996  0.16936110     0.16200
C468        C  0.45753847  0.08824575  0.18874818     0.25700
C469        C  0.41908723  0.07650853  0.20343526    -0.40700
C470        C  0.36378572  0.05716099  0.19841753     0.32700
C471        C  0.37317212  0.06751400  0.14274125     0.01300
F472        F  0.48654762  0.11275689  0.15629849    -0.13000
F473        F  0.32495327  0.04223474  0.21247304    -0.13500
C474        C  0.33303997  0.07692699  0.13680737     0.16200
C475        C  0.31310844  0.06805103  0.11758862     0.25700
C476        C  0.33411544  0.05092347  0.10386559    -0.40600
C477        C  0.37887857  0.04793427  0.10903996     0.32600
C478        C  0.39703672  0.05435058  0.12827339     0.14300
F479        F  0.31154306  0.09278257  0.14983153    -0.13000
F480        F  0.40419870  0.53338597  0.09584242    -0.13500
F481        F  0.27017013  0.07175604  0.11275166    -0.15800
F482        F  0.43731867  0.54471503  0.13275701    -0.14300
F483        F  0.29247302  0.02501587  0.17453187    -0.14300
F484        F  0.51018270  0.10291836  0.19330044    -0.15800
C485        C  0.14071130  0.26457852  0.32404868     0.14300
C486        C  0.11907801  0.22037585  0.33656463     0.01300
C487        C  0.08875523  0.16939585  0.32877724     0.16200
C488        C  0.08219900  0.16288941  0.30880902     0.25700
C489        C  0.10233984  0.20702585  0.29628668    -0.40700
C490        C  0.13081749  0.25784397  0.30406580     0.32700
C491        C  0.13666428  0.22689325  0.35705244     0.01300
F492        F  0.06920902  0.12606873  0.34039498    -0.13000
F493        F  0.15010757  0.30075022  0.29229768    -0.13500
C494        C  0.09697689  0.20038197  0.37200821     0.16200
C495        C  0.11429065  0.19639923  0.39061671     0.25700
C496        C  0.17141368  0.21896247  0.39429820    -0.40600
C497        C  0.21120606  0.24901613  0.37976429     0.32600
C498        C  0.19384505  0.25230435  0.36120169     0.14300
F499        F  0.04142836  0.17596816  0.36828005    -0.13000
F500        F  0.26674643  0.27254905  0.38334972    -0.13500
F501        F  0.07515520  0.16725857  0.40454496    -0.15800
F502        F  0.23246791  0.27715717  0.34683644    -0.14300
F503        F  0.17257341  0.31422717  0.33114006    -0.14300
F504        F  0.05471604  0.11289760  0.30180898    -0.15800
C505        C  0.23480666  0.26067624  0.14233015     0.14300
C506        C  0.19409151  0.26955094  0.14719580     0.01300
C507        C  0.17537008  0.28838662  0.13238732     0.16200
C508        C  0.18656611  0.28620635  0.11290034     0.25700
C509        C  0.22305126  0.27224814  0.10820897    -0.40700
C510        C  0.25338721  0.26808303  0.12326405     0.32700
C511        C  0.16715326  0.25449569  0.16677267     0.01300
F512        F  0.14409428  0.30649851  0.13666038    -0.13000
F513        F  0.29751237  0.26601731  0.11925622    -0.13500
C514        C  0.19757577  0.26104450  0.18397599     0.16200
C515        C  0.17015499  0.24154276  0.20183631     0.25700
C516        C  0.11294743  0.21991381  0.20313079    -0.40600
C517        C  0.08332013  0.21688713  0.18642343     0.32600
C518        C  0.10890536  0.23006543  0.16829819     0.14300
F519        F  0.25381651  0.28672189  0.18367910    -0.13000
F520        F  0.02913727  0.20071869  0.18764114    -0.13500
F521        F  0.19967486  0.24516412  0.21792029    -0.15800
F522        F  0.07597288  0.21677699  0.15224614    -0.14300
F523        F  0.25280098  0.23977246  0.15526891    -0.14300
F524        F  0.15980887  0.29525224  0.09881271    -0.15800
C525        C  0.35420765  0.28664628  0.82256799     0.14300
C526        C  0.38848927  0.28972090  0.83799670     0.01300
C527        C  0.43746712  0.29330371  0.83364198     0.16200
C528        C  0.45230852  0.29457210  0.81442913     0.25700
C529        C  0.42013560  0.29468924  0.79910498    -0.40700
C530        C  0.37102629  0.29099576  0.80321473     0.32700
C531        C  0.37456347  0.29021731  0.85861774     0.01300
F532        F  0.47086206  0.29510822  0.84805493    -0.13000
F533        F  0.33987349  0.29207783  0.78859006    -0.13500
C534        C  0.32202126  0.24943343  0.86625856     0.16200
C535        C  0.30931413  0.24998649  0.88566350     0.25700
C536        C  0.34766195  0.29280659  0.89746747    -0.40600
C537        C  0.40121473  0.33225191  0.89030844     0.32600
C538        C  0.41459768  0.33112006  0.87100091     0.14300
F539        F  0.28199006  0.20998297  0.85484538    -0.13000
F540        F  0.43918439  0.37349616  0.90169864    -0.13500
F541        F  0.25768584  0.21093627  0.89251710    -0.15800
F542        F  0.46545062  0.37168911  0.86411424    -0.14300
F543        F  0.30561284  0.28135495  0.82618278    -0.14300
F544        F  0.49997935  0.29828988  0.81075029    -0.15800
C545        C  0.13168591  0.36112586  0.82652932     0.14300
C546        C  0.15217535  0.41101308  0.83373119     0.01300
C547        C  0.16409359  0.45146870  0.82066460     0.16200
C548        C  0.14918363  0.44057814  0.80112385     0.25700
C549        C  0.12003281  0.38815598  0.79448696    -0.40700
C550        C  0.11563428  0.34920540  0.80701366     0.32700
C551        C  0.15376466  0.41818385  0.85498754     0.01300
F552        F  0.18739779  0.50095341  0.82696715    -0.13000
F553        F  0.09033718  0.29849707  0.80108850    -0.13500
C554        C  0.19097458  0.41475116  0.86702944     0.16200
C555        C  0.19291322  0.42316502  0.88699724     0.25700
C556        C  0.15748535  0.43495206  0.89516507    -0.40600
C557        C  0.11613714  0.43260920  0.88347826     0.32600
C558        C  0.11477607  0.42495305  0.86347101     0.14300
F559        F  0.22745151  0.40605890  0.85936736    -0.13000
F560        F  0.07992052  0.44165258  0.89126714    -0.13500
F561        F  0.23880892  0.92671299  0.89765275    -0.15800
F562        F  0.07615826  0.42519496  0.85226770    -0.14300
F563        F  0.12374358  0.32335582  0.83901540    -0.14300
F564        F  0.15932222  0.48057653  0.78909491    -0.15800
C565        C  0.10485096  0.41148504  0.67084196     0.14300
C566        C  0.13844353  0.39430617  0.66583026     0.01300
C567        C  0.15890195  0.37755121  0.68067494     0.16200
C568        C  0.14245208  0.37426136  0.69990317     0.25700
C569        C  0.10740941  0.38987469  0.70460355    -0.40700
C570        C  0.09052528  0.41033637  0.69004769     0.32700
C571        C  0.15357439  0.39676158  0.64523929     0.01300
F572        F  0.19349597  0.36305153  0.67660233    -0.13000
F573        F  0.05708399  0.42626890  0.69420043    -0.13500
C574        C  0.21030371  0.42463126  0.63981370     0.16200
C575        C  0.22529390  0.43741158  0.62035748     0.25700
C576        C  0.18391413  0.42335156  0.60621170    -0.40600
C577        C  0.12706194  0.39104621  0.61123084     0.32600
C578        C  0.11185086  0.37736711  0.63065713     0.14300
F579        F  0.25160913  0.44363870  0.65339555    -0.13000
F580        F  0.08664700  0.37672795  0.59756561    -0.13500
F581        F  0.28057534  0.46803047  0.61550332    -0.15800
F582        F  0.05646140  0.34778202  0.63534004    -0.14300
F583        F  0.08609206  0.42999363  0.65716513    -0.14300
F584        F  0.16002856  0.35521687  0.71387103    -0.15800
C585        C  0.39136101  0.29537830  0.63121470     0.14300
C586        C  0.35062382  0.26851153  0.64592607     0.01300
C587        C  0.29372571  0.23539940  0.64058111     0.16200
C588        C  0.27747815  0.23014170  0.62103058     0.25700
C589        C  0.31790661  0.25886241  0.60641542    -0.40700
C590        C  0.37514773  0.28992292  0.61160086     0.32700
C591        C  0.36712961  0.27662697  0.66685863     0.01300
F592        F  0.25372996  0.21181941  0.65449524    -0.13000
F593        F  0.41501045  0.31846883  0.59783207    -0.13500
C594        C  0.39726277  0.32775426  0.67464057     0.16200
C595        C  0.41461346  0.33629108  0.69404898     0.25700
C596        C  0.40470865  0.29407092  0.70602942    -0.40600
C597        C  0.37215775  0.24236600  0.69852736     0.32600
C598        C  0.35276753  0.23369768  0.67924987     0.14300
F599        F  0.41091705  0.36998474  0.66335065    -0.13000
F600        F  0.35997100  0.20025571  0.70968852    -0.13500
F601        F  0.44413734  0.38678191  0.70066574    -0.15800
F602        F  0.32184691  0.18346522  0.67254466    -0.14300
F603        F  0.44682550  0.32788551  0.63589264    -0.14300
F604        F  0.22186199  0.20032183  0.61644497    -0.15800
C605        C  0.04867941  0.15691217  0.87345402     0.14300
C606        C  0.04473009  0.18210845  0.85691386     0.01300
C607        C  0.03662578  0.22226211  0.85972988     0.16200
C608        C  0.03168237  0.23644795  0.87839113     0.25700
C609        C  0.03196923  0.20902327  0.89483773    -0.40700
C610        C  0.04243578  0.17026004  0.89223959     0.32700
C611        C  0.05209839  0.16935180  0.83674336     0.01300
F612        F  0.02966737  0.24553476  0.84427610    -0.13000
F613        F  0.54063103  0.14151488  0.90716899    -0.13500
C614        C  0.01328722  0.12006876  0.82799679     0.16200
C615        C  0.02054359  0.11069014  0.80867590     0.25700
C616        C  0.06739992  0.15037168  0.79766589    -0.40600
C617        C  0.10617298  0.19946409  0.80667904     0.32600
C618        C  0.09871380  0.20809619  0.82587419     0.14300
F619        F  0.96875980  0.08056881  0.83817608    -0.13000
F620        F  0.15295220  0.23910086  0.79726736    -0.13500
F621        F  0.98237181  0.06224671  0.80102441    -0.15800
F622        F  0.13912682  0.25384250  0.83433394    -0.14300
F623        F  0.05662180  0.11813889  0.87139157    -0.14300
F624        F  0.02118438  0.27364653  0.88031307    -0.15800
C625        C  0.16674157  0.08038865  0.87319041     0.14300
C626        C  0.20017575  0.08196879  0.85822660     0.01300
C627        C  0.24014576  0.07206201  0.86317153     0.16200
C628        C  0.24400260  0.05672832  0.88193484     0.25700
C629        C  0.20653829  0.04930654  0.89624798    -0.40700
C630        C  0.16971376  0.06391293  0.89210185     0.32700
C631        C  0.18915860  0.08650736  0.83720731     0.01300
F632        F  0.27169093  0.07189817  0.84926231    -0.13000
F633        F  0.13386516  0.05838444  0.90590499    -0.13500
C634        C  0.23367388  0.11892791  0.82409728     0.16200
C635        C  0.22386433  0.11734344  0.80409860     0.25700
C636        C  0.16925584  0.08336853  0.79651403    -0.40600
C637        C  0.12473386  0.05028298  0.80949385     0.32600
C638        C  0.13455847  0.05197380  0.82952643     0.14300
F639        F  0.28723100  0.15223850  0.83046802    -0.13000
F640        F  0.07093367  0.01763290  0.80296317    -0.13500
F641        F  0.26801640  0.14977803  0.79215915    -0.15800
F642        F  0.09062903  0.01826704  0.84133203    -0.14300
F643        F  0.12957385  0.09243311  0.86929135    -0.14300
F644        F  0.27678394  0.53855849  0.88518611    -0.15800
C645        C  0.19644281  0.04847248  0.67703428     0.14300
C646        C  0.18566660  0.07103929  0.66117897     0.01300
C647        C  0.16509617  0.10128793  0.66494975     0.16200
C648        C  0.15753292  0.11048909  0.68411837     0.25700
C649        C  0.16654904  0.08670522  0.70000497    -0.40700
C650        C  0.18602633  0.05535885  0.69628153     0.32700
C651        C  0.19455272  0.06174186  0.64076972     0.01300
F652        F  0.15266283  0.12229958  0.65002086    -0.13000
F653        F  0.19518302  0.03174773  0.71118588    -0.13500
C654        C  0.14859835  0.02924935  0.62833551     0.16200
C655        C  0.15678062  0.01462160  0.61020444     0.25700
C656        C  0.21105285  0.03223035  0.60420340    -0.40600
C657        C  0.25721959  0.06918900  0.61567303     0.32600
C658        C  0.24901235  0.08406436  0.63371676     0.14300
F659        F  0.09566807  0.01048901  0.63397710    -0.13000
F660        F  0.31006133  0.08919991  0.60967156    -0.13500
F661        F  0.11115345  0.47685902  0.59981560    -0.15800
F662        F  0.29425415  0.12028430  0.64434208    -0.14300
F663        F  0.21483254  0.01788443  0.67372085    -0.14300
F664        F  0.14072784  0.14247092  0.68714739    -0.15800
C665        C  0.01630828  0.12274040  0.67210498     0.14300
C666        C  0.05561038  0.17307890  0.66374818     0.01300
C667        C  0.09340268  0.21466602  0.67622903     0.16200
C668        C  0.09358742  0.20633482  0.69616799     0.25700
C669        C  0.05890317  0.15492639  0.70416735    -0.40700
C670        C  0.01898596  0.11343485  0.69198201     0.32700
C671        C  0.05748039  0.18250572  0.64224707     0.01300
F672        F  0.13355999  0.26302738  0.66908129    -0.13000
F673        F  0.98619788  0.06288602  0.69888215    -0.13500
C674        C  0.06353104  0.22838288  0.63477657     0.16200
C675        C  0.06218150  0.23588544  0.61479507     0.25700
C676        C  0.04922592  0.19586004  0.60188890    -0.40600
C677        C  0.04707884  0.15177458  0.60889995     0.32600
C678        C  0.05252421  0.14572330  0.62890006     0.14300
F679        F  0.06550593  0.26381056  0.64672816    -0.13000
F680        F  0.03521732  0.11265731  0.59661387    -0.13500
F681        F  0.06571347  0.27911731  0.60804479    -0.15800
F682        F  0.05082565  0.10289730  0.63518655    -0.14300
F683        F  0.97628783  0.08203456  0.66099752    -0.14300
F684        F  0.13202794  0.24807472  0.70728751    -0.15800
C685        C  0.40697952  0.13972745  0.82115814     0.14300
C686        C  0.37663351  0.10144601  0.83601079     0.01300
C687        C  0.33698741  0.04836018  0.83049513     0.16200
C688        C  0.32807920  0.03430716  0.81092621     0.25700
C689        C  0.36107784  0.07208678  0.79639157    -0.40700
C690        C  0.40074607  0.12488613  0.80165202     0.32700
C691        C  0.38632447  0.11642910  0.85709477     0.01300
F692        F  0.30532233  0.01006281  0.84401976    -0.13000
F693        F  0.43375240  0.16199733  0.78792865    -0.13500
C694        C  0.38627280  0.15938494  0.86366242     0.16200
C695        C  0.39845756  0.17521627  0.88309096     0.25700
C696        C  0.41202274  0.14908577  0.89633903    -0.40600
C697        C  0.40730210  0.10347803  0.89037604     0.32600
C698        C  0.39491564  0.08744534  0.87097290     0.14300
F699        F  0.37497290  0.18652870  0.85123933    -0.13000
F700        F  0.41900689  0.07682416  0.90305635    -0.13500
F701        F  0.40167180  0.21885417  0.88861977    -0.15800
F702        F  0.39409256  0.04499205  0.86569526    -0.14300
F703        F  0.44437794  0.19136916  0.82545675    -0.14300
F704        F  0.28899029  0.98286896  0.80625918    -0.15800
C705        C  0.27436427  0.36846728  0.82210628     0.14300
C706        C  0.32099195  0.38173726  0.83354367     0.01300
C707        C  0.37264073  0.40266841  0.82416729     0.16200
C708        C  0.37810352  0.41417189  0.80414383     0.25700
C709        C  0.33165122  0.40390723  0.79306691    -0.40700
C710        C  0.27882723  0.37699474  0.80213458     0.32700
C711        C  0.31439840  0.37258190  0.85501412     0.01300
F712        F  0.41779607  0.41192065  0.83429396    -0.13000
F713        F  0.23186873  0.36366088  0.79212820    -0.13500
C714        C  0.26716658  0.32490507  0.86264717     0.16200
C715        C  0.25906914  0.31667439  0.88263014     0.25700
C716        C  0.30120058  0.35300022  0.89546378    -0.40600
C717        C  0.34788561  0.40118670  0.88816190     0.32600
C718        C  0.35393284  0.41138105  0.86809587     0.14300
F719        F  0.23154226  0.28391946  0.85085894    -0.13000
F720        F  0.38983879  0.43622910  0.90034678    -0.13500
F721        F  0.21370817  0.26973238  0.88942741    -0.15800
F722        F  0.39976138  0.45807334  0.86148531    -0.14300
F723        F  0.22471454  0.35062688  0.83042210    -0.14300
F724        F  0.42926376  0.43703456  0.79582846    -0.15800
C725        C  0.42797535  0.16046590  0.67829066     0.14300
C726        C  0.39361982  0.12658736  0.66310419     0.01300
C727        C  0.34530293  0.07637237  0.66791063     0.16200
C728        C  0.33319189  0.05870693  0.68717797     0.25700
C729        C  0.36966828  0.09063411  0.70225957    -0.40700
C730        C  0.41674972  0.14217137  0.69771260     0.32700
C731        C  0.40981153  0.14003848  0.64221667     0.01300
F732        F  0.31104153  0.04324993  0.65365941    -0.13000
F733        F  0.45285611  0.17396583  0.71195352    -0.13500
C734        C  0.41456875  0.10540551  0.63091211     0.16200
C735        C  0.42851923  0.11587774  0.61130160     0.25700
C736        C  0.43926218  0.16208462  0.60245076    -0.40600
C737        C  0.43190808  0.19580352  0.61330936     0.32600
C738        C  0.41813992  0.18522246  0.63315540     0.14300
F739        F  0.40795847  0.06216909  0.63909502    -0.13000
F740        F  0.44205348  0.24075116  0.60502931    -0.13500
F741        F  0.43500975  0.08244352  0.60118556    -0.15800
F742        F  0.41374388  0.21926122  0.64361197    -0.14300
F743        F  0.47411320  0.20991213  0.67431739    -0.14300
F744        F  0.28933217  0.00769177  0.69083014    -0.15800
C745        C  0.35501717  0.44048555  0.66566102     0.14300
C746        C  0.31757660  0.38653642  0.66131025     0.01300
C747        C  0.29096112  0.34966429  0.67685022     0.16200
C748        C  0.30080789  0.36717126  0.69617840     0.25700
C749        C  0.33822676  0.42148106  0.70020599    -0.40700
C750        C  0.36465669  0.45765177  0.68475313     0.32700
C751        C  0.30653889  0.36967034  0.64059785     0.01300
F752        F  0.25556290  0.29690363  0.67336649    -0.13000
F753        F  0.39585078  0.51040607  0.68800150    -0.13500
C754        C  0.35138599  0.38883563  0.62752307     0.16200
C755        C  0.34089931  0.37109471  0.60842759     0.25700
C756        C  0.28608007  0.33105900  0.60241154    -0.40600
C757        C  0.24096215  0.31514833  0.61469058     0.32600
C758        C  0.25116450  0.33525770  0.63349279     0.14300
F759        F  0.40571773  0.42237169  0.63337558    -0.13000
F760        F  0.18747715  0.27747361  0.60896166    -0.13500
F761        F  0.38492853  0.38921814  0.59628091    -0.15800
F762        F  0.20685873  0.32077590  0.64474806    -0.14300
F763        F  0.38035635  0.47726127  0.65128715    -0.14300
F764        F  0.27323978  0.33142239  0.71086304    -0.15800
O765        O  0.32315530  0.78194174  0.98351609    -0.79300
O766        O  0.29801490  0.60196625  0.03786429    -0.63900
O767        O  0.34037215  0.71406667  0.00127391    -1.10500
C768        C  0.26218213  0.55924989  0.96433994     1.07600
O769        O  0.30473966  0.54707095  0.01765748    -0.77200
O770        O  0.39811741  0.63702763  0.97459434    -0.64700
Ni771      Ni  0.36373127  0.78167342  0.00599215     1.34900
C772        C  0.41119108  0.68015555  0.96636904     0.86400
O773        O  0.39433466  0.70243446  0.02912513    -0.77700
O774        O  0.40834757  0.78304864  0.02815412    -0.88000
C775        C  0.29537692  0.55878859  0.03433642     0.85900
O776        O  0.30070069  0.75979178  0.02218786    -0.66200
O777        O  0.28675422  0.54682320  0.97689137    -0.85500
C778        C  0.28575638  0.73083598  0.03737832     0.86800
C779        C  0.42107411  0.75128106  0.03439928     1.08300
H780        H  0.27406053  0.59518787  0.00024465     0.40100
O781        O  0.31315268  0.62482801  0.99936866    -1.08100
O782        O  0.38269095  0.69868136  0.96912213    -0.64800
Ni783      Ni  0.30897793  0.66634142  0.98087538     1.26300
O784        O  0.30089204  0.69886912  0.04044120    -0.65000
O785        O  0.27318095  0.60679216  0.96295751    -0.77300
C786        C  0.30821724  0.75749878  0.96727277     0.86200
O787        O  0.30200488  0.71313734  0.96428729    -0.64500
Ni788      Ni  0.34841248  0.59193158  0.99569575     1.27400
Ni789      Ni  0.31612659  0.66231980  0.02093508     1.26100
H790        H  0.37837093  0.72543332  0.99911297     0.40700
O791        O  0.31093395  0.54036513  0.48238030    -0.79300
O792        O  0.30940336  0.69678510  0.53813259    -0.63900
O793        O  0.32548325  0.61799919  0.50177397    -1.10500
C794        C  0.42739331  0.75338004  0.46896929     1.07600
O795        O  0.30478428  0.75401607  0.51830927    -0.77200
O796        O  0.28915271  0.73653812  0.47869171    -0.64700
Ni797      Ni  0.36090137  0.58470015  0.50356299     1.34900
C798        C  0.28150624  0.71099234  0.46328936     0.86400
O799        O  0.29013522  0.59717486  0.53852116    -0.77700
O800        O  0.30535059  0.54021972  0.52414693    -0.88000
C801        C  0.29704473  0.73024564  0.53489093     0.85900
O802        O  0.41601808  0.62985606  0.52330673    -0.66200
O803        O  0.40674801  0.77899784  0.47492439    -0.85500
C804        C  0.42685899  0.66992273  0.53275649     0.86800
C805        C  0.28275455  0.55180649  0.53738742     1.08300
H806        H  0.38689550  0.72203502  0.50327473     0.40100
O807        O  0.34751302  0.70562674  0.50085404    -1.08100
O808        O  0.30903009  0.69083319  0.46072314    -0.64800
Ni809      Ni  0.32585827  0.65676987  0.48070616     1.26300
O810        O  0.39541400  0.68649337  0.53166661    -0.65000
O811        O  0.40455925  0.70367441  0.47316364    -0.77300
C812        C  0.30167247  0.55558499  0.46604163     0.86200
O813        O  0.30923546  0.60102577  0.46311451    -0.64500
Ni814      Ni  0.35359660  0.76658402  0.49616897     1.27400
Ni815      Ni  0.32026199  0.65564563  0.52077373     1.26100
H816        H  0.28645146  0.58811211  0.50111812     0.40700
O817        O  0.41241748  0.57043715  0.73027336    -0.72800
O818        O  0.38547600  0.96741644  0.76706741    -0.72800
O819        O  0.38785298  0.97493654  0.72689892    -0.72900
O820        O  0.40792408  0.56044131  0.77039328    -0.72900
O821        O  0.31541003  0.52212252  0.76930128    -0.72900
O822        O  0.29502962  0.93524244  0.72665751    -0.72800
O823        O  0.29322154  0.92909465  0.76625416    -0.72800
O824        O  0.31994288  0.53194741  0.72923286    -0.72900
Ni825      Ni  0.39924104  0.02010571  0.74807377     1.25400
Ni826      Ni  0.30009434  0.97838370  0.74727635     1.25400
C827        C  0.36945268  0.56551486  0.72245648     0.89400
C828        C  0.33624993  0.93404444  0.77403921     0.89300
C829        C  0.33908188  0.94271876  0.71926337     0.89300
C830        C  0.36308785  0.55159657  0.77783873     0.89500
O831        O  0.10710142  0.55961872  0.72778877    -0.72800
O832        O  0.04750733  0.59476960  0.76971649    -0.72800
O833        O  0.04341313  0.59603190  0.72942576    -0.72900
O834        O  0.11039024  0.55868253  0.76836217    -0.72900
O835        O  0.18806262  0.64135008  0.76777177    -0.72900
O836        O  0.12049280  0.67900644  0.72930584    -0.72800
O837        O  0.12503618  0.67725515  0.76920401    -0.72800
O838        O  0.18384516  0.64292933  0.72715730    -0.72900
Ni839      Ni  0.07442095  0.57425271  0.74877302     1.25400
Ni840      Ni  0.15715617  0.66296107  0.74829752     1.25400
C841        C  0.15320894  0.59666978  0.71963029     0.89400
C842        C  0.07890438  0.64077614  0.77744332     0.89300
C843        C  0.07261204  0.64295495  0.72205518     0.89300
C844        C  0.15680729  0.59585751  0.77616255     0.89500
O845        O  0.07223143  0.90430844  0.77027376    -0.72800
O846        O  0.44666270  0.84705268  0.73278457    -0.72800
O847        O  0.45069824  0.84532177  0.77243282    -0.72900
O848        O  0.06542816  0.90500629  0.73077858    -0.72900
O849        O  0.05436585  0.82721472  0.73017915    -0.72900
O850        O  0.44330856  0.76923269  0.77174217    -0.72800
O851        O  0.43910604  0.77111192  0.73177570    -0.72800
O852        O  0.06085298  0.82654291  0.76970149    -0.72900
Ni853      Ni  0.50476776  0.87557299  0.75194821     1.25400
Ni854      Ni  0.49671216  0.79410070  0.75118954     1.25400
C855        C  0.08447017  0.87291962  0.77679362     0.89400
C856        C  0.42672164  0.80217216  0.72496529     0.89300
C857        C  0.43238285  0.79953997  0.77960373     0.89300
C858        C  0.07485331  0.87353401  0.72305821     0.89500
C859        C  0.46911188  0.69018477  0.54905357     0.03900
C860        C  0.02633605  0.70614496  0.54746577     0.03900
C861        C  0.05240939  0.70855707  0.56528830    -0.16600
C862        C  0.02457608  0.69702059  0.58301371     0.03900
C863        C  0.47249211  0.68612875  0.58475063     0.03900
C864        C  0.44418639  0.68164563  0.56751002    -0.16600
H865        H  0.40046975  0.66761263  0.56852687     0.05900
H866        H  0.09580065  0.72130132  0.56550487     0.05900
C867        C  0.24834912  0.51338639  0.55339360     0.03900
C868        C  0.22167210  0.95950227  0.55282871     0.03900
C869        C  0.20255662  0.93141220  0.57071776    -0.16600
C870        C  0.20233021  0.95559514  0.58761749     0.03900
C871        C  0.21880230  0.50590680  0.58732249     0.03900
C872        C  0.24505124  0.53613292  0.57062351    -0.16600
H873        H  0.26307577  0.57812417  0.57130035     0.05900
H874        H  0.18498440  0.88945664  0.57152828     0.05900
C875        C  0.30465971  0.78493507  0.94998152     0.03900
C876        C  0.28797355  0.82052262  0.94976990     0.03900
C877        C  0.28989029  0.84510232  0.93189533    -0.16600
C878        C  0.30821385  0.83582734  0.91481071     0.03900
C879        C  0.32540073  0.80163068  0.91535269     0.03900
C880        C  0.32338017  0.77678154  0.93261172    -0.16600
H881        H  0.33748561  0.75106803  0.93237482     0.05900
H882        H  0.27591621  0.87091211  0.93114360     0.05900
C883        C  0.24652057  0.76755868  0.55214532     0.03900
C884        C  0.27840207  0.74510185  0.55229617     0.03900
C885        C  0.29815743  0.73935244  0.57052804    -0.16600
C886        C  0.29326605  0.76018778  0.58753924     0.03900
C887        C  0.27202554  0.79099833  0.58641827     0.03900
C888        C  0.24714637  0.79271065  0.56924702    -0.16600
H889        H  0.22809909  0.81420058  0.56943677     0.05900
H890        H  0.31929237  0.71982237  0.57163255     0.05900
C891        C  0.19344292  0.96301599  0.94880554     0.03900
C892        C  0.22289038  0.51979975  0.94898504     0.03900
C893        C  0.22308654  0.54502787  0.93144834    -0.16600
C894        C  0.19888933  0.51768078  0.91427065     0.03900
C895        C  0.17868006  0.96460335  0.91351007     0.03900
C896        C  0.17400268  0.93733816  0.93069458    -0.16600
H897        H  0.15377262  0.89486219  0.92993125     0.05900
H898        H  0.24572107  0.58778899  0.93046352     0.05900
C899        C  0.01113843  0.73928162  0.94663674     0.03900
C900        C  0.44864882  0.69942711  0.94891618     0.03900
C901        C  0.41855357  0.66923862  0.93238913    -0.16600
C902        C  0.44516539  0.67297663  0.91516245     0.03900
C903        C  0.00469839  0.70829615  0.91288521     0.03900
C904        C  0.03647362  0.73897625  0.92903352    -0.16600
H905        H  0.08180755  0.76344465  0.92757538     0.05900
H906        H  0.37316004  0.64078075  0.93305583     0.05900
O907        O  0.18557582  0.72340715  0.48111326    -0.79300
O908        O  0.19144460  0.87872811  0.53720916    -0.63900
O909        O  0.14621755  0.77461894  0.49845596    -1.10500
C910        C  0.21377060  0.93110723  0.46226611     1.07600
O911        O  0.19516652  0.94316766  0.51887337    -0.77200
O912        O  0.08384272  0.85779375  0.47881104    -0.64700
Ni913      Ni  0.13705726  0.71198436  0.50305683     1.34900
C914        C  0.06983191  0.81785655  0.46859741     0.86400
O915        O  0.09154513  0.77863063  0.52653792    -0.77700
O916        O  0.08465791  0.70097067  0.52441721    -0.88000
C917        C  0.20355177  0.92609692  0.53495686     0.85900
O918        O  0.20113646  0.73917015  0.52050005    -0.66200
O919        O  0.19502549  0.94378234  0.47657637    -0.85500
C920        C  0.20938490  0.76459168  0.53596056     0.86800
C921        C  0.06652491  0.72846830  0.53068892     1.08300
H922        H  0.21334177  0.89282611  0.49858885     0.40100
O923        O  0.17371121  0.86432381  0.49815158    -1.08100
O924        O  0.09875109  0.79832447  0.46850602    -0.64800
Ni925      Ni  0.17447661  0.82522041  0.47849580     1.26300
O926        O  0.18312050  0.78575620  0.53856292    -0.65000
O927        O  0.20525893  0.88504782  0.46059192    -0.77300
C928        C  0.19353157  0.74657437  0.46442288     0.86200
O929        O  0.18218277  0.78111876  0.46092503    -0.64500
Ni930      Ni  0.14178167  0.90071724  0.49796122     1.27400
Ni931      Ni  0.17052818  0.82303956  0.51891609     1.26100
H932        H  0.10706154  0.75962854  0.49621667     0.40700
O933        O  0.03657995  0.81132793  0.01727572    -0.79300
O934        O  0.21823193  0.82764131  0.96279163    -0.63900
O935        O  0.12063428  0.82727464  0.99792228    -1.10500
C936        C  0.25163286  0.93465575  0.03296815     1.07600
O937        O  0.29023183  0.84562618  0.98302217    -0.77200
O938        O  0.26905051  0.82398047  0.02260275    -0.64700
Ni939      Ni  0.08028965  0.85540535  0.99449300     1.34900
C940        C  0.23912989  0.80997178  0.03783651     0.86400
O941        O  0.10413610  0.79386682  0.96071819    -0.77700
O942        O  0.03573873  0.79721340  0.97506854    -0.88000
C943        C  0.26364396  0.83085272  0.96652723     0.85900
O944        O  0.12542819  0.90645962  0.97345074    -0.66200
O945        O  0.28795933  0.92538201  0.02737987    -0.85500
C946        C  0.17274266  0.92357322  0.96557025     0.86800
C947        C  0.05205579  0.77852367  0.96205264     1.08300
H948        H  0.22783116  0.89519793  0.99786464     0.40100
O949        O  0.21748489  0.85979112  0.00007944    -1.08100
O950        O  0.20556128  0.82419979  0.04010806    -0.64800
Ni951      Ni  0.16342802  0.83321295  0.01970808     1.26300
O952        O  0.19565955  0.89915482  0.96811181    -0.65000
O953        O  0.19990347  0.90639808  0.02721205    -0.77300
C954        C  0.05298393  0.80414756  0.03399435     0.86200
O955        O  0.10103971  0.81102821  0.03689466    -0.64500
Ni956      Ni  0.28927099  0.88349103  0.00556143     1.27400
Ni957      Ni  0.16669837  0.82920188  0.97931509     1.26100
H958        H  0.09147605  0.78962993  0.99873709     0.40700
O959        O  0.45006534  0.64212544  0.22934737    -0.72800
O960        O  0.05964094  0.72242210  0.26897213    -0.72800
O961        O  0.05843854  0.72066220  0.22909019    -0.72900
O962        O  0.45359495  0.64683756  0.26947368    -0.72900
O963        O  0.47424404  0.58783387  0.27147173    -0.72900
O964        O  0.07403433  0.65780603  0.22973231    -0.72800
O965        O  0.07801042  0.66153126  0.26900416    -0.72800
O966        O  0.46812824  0.58104139  0.23123970    -0.72900
Ni967      Ni  0.00345616  0.68632921  0.24904600     1.25400
Ni968      Ni  0.02142269  0.61991237  0.25048571     1.25400
C969        C  0.44422012  0.60047494  0.22290303     0.89400
C970        C  0.08147769  0.70029781  0.27689163     0.89300
C971        C  0.08228056  0.70016233  0.22230738     0.89300
C972        C  0.45333729  0.61065621  0.27895604     0.89500
O973        O  0.28512049  0.84592540  0.26979571    -0.72800
O974        O  0.33351272  0.79462718  0.23053601    -0.72800
O975        O  0.33005512  0.79174274  0.27072166    -0.72900
O976        O  0.28888706  0.85053817  0.23016617    -0.72900
O977        O  0.37443132  0.92637156  0.23138976    -0.72900
O978        O  0.41647121  0.86658377  0.27096628    -0.72800
O979        O  0.41917901  0.87084660  0.23098462    -0.72800
O980        O  0.37189776  0.92072855  0.27128238    -0.72900
Ni981      Ni  0.30641404  0.81789924  0.25018818     1.25400
Ni982      Ni  0.39858052  0.89875126  0.25113407     1.25400
C983        C  0.32183833  0.88990460  0.27792152     0.89400
C984        C  0.38296311  0.82565116  0.22342085     0.89300
C985        C  0.37847480  0.82201367  0.27881366     0.89300
C986        C  0.32539499  0.89755892  0.22364831     0.89500
C987        C  0.28908236  0.52331424  0.44849685     0.03900
C988        C  0.24628992  0.97002683  0.44597304     0.03900
C989        C  0.23703979  0.94817199  0.42724561    -0.16600
C990        C  0.27130865  0.97822649  0.41140689     0.03900
C991        C  0.31928529  0.52840111  0.41495497     0.03900
C992        C  0.32554955  0.55200677  0.43275699    -0.16600
H993        H  0.36058694  0.59323857  0.43452742     0.05900
H994        H  0.20328120  0.90681397  0.42495329     0.05900
O995        O  0.16124708  0.95457380  0.27057336    -0.72800
O996        O  0.20281702  0.54950036  0.22615786    -0.72800
O997        O  0.22243194  0.56252093  0.26596168    -0.72900
O998        O  0.14466840  0.94335285  0.23087102    -0.72900
O999        O  0.06965959  0.94543770  0.23290102    -0.72900
O1000       O  0.14471887  0.55938944  0.26944723    -0.72800
O1001       O  0.12580926  0.54769436  0.22977993    -0.72800
O1002       O  0.08494108  0.95454087  0.27304246    -0.72900
Ni1003     Ni  0.18559754  0.50381112  0.24827824     1.25400
Ni1004     Ni  0.10250407  0.50090138  0.25184379     1.25400
C1005       C  0.11748491  0.94254881  0.27986984     0.89400
C1006       C  0.16814284  0.55931219  0.21967725     0.90700
C1007       C  0.19526667  0.57746534  0.27466511     0.89300
C1008       C  0.09609944  0.92894286  0.22470777     0.89500
C1009       C  0.26523573  0.96844006  0.05049616     0.03900
C1010       C  0.28630244  0.52283558  0.05108675     0.03900
C1011       C  0.30604756  0.54839598  0.06919755    -0.16600
C1012       C  0.30371607  0.52113790  0.08594406     0.03900
C1013       C  0.27097807  0.96646703  0.08610085     0.03900
C1014       C  0.25454938  0.94051170  0.06827752    -0.16600
H1015       H  0.23428077  0.89809127  0.06825412     0.05900
H1016       H  0.32684239  0.59087191  0.07019992     0.05900
C1017       C  0.24281639  0.70647087  0.44724566     0.03900
C1018       C  0.21008152  0.72836342  0.44728357     0.03900
C1019       C  0.18688955  0.73036681  0.42946804    -0.16600
C1020       C  0.19070642  0.70888327  0.41247997     0.03900
C1021       C  0.21533765  0.68076296  0.41280671     0.03900
C1022       C  0.24201795  0.68102685  0.43002619    -0.16600
H1023       H  0.26337972  0.66171718  0.42973144     0.05900
H1024       H  0.16489942  0.74912004  0.42855553     0.05900
C1025       C  0.25260470  0.73648711  0.05261700     0.03900
C1026       C  0.24384893  0.77843056  0.05409089     0.03900
C1027       C  0.23368122  0.78892960  0.07284220    -0.16600
C1028       C  0.22342153  0.75581955  0.08883248     0.03900
C1029       C  0.21546237  0.70685251  0.08563871     0.03900
C1030       C  0.23254313  0.69901653  0.06799559    -0.16600
H1031       H  0.23201931  0.66382547  0.06660666     0.05900
H1032       H  0.23459201  0.82396547  0.07510653     0.05900
C1033       C  0.02940970  0.80431499  0.45212268     0.03900
C1034       C  0.46806464  0.77734380  0.45244714     0.03900
C1035       C  0.44155212  0.77312027  0.43446351    -0.16600
C1036       C  0.47189452  0.79421581  0.41719434     0.03900
C1037       C  0.03173347  0.82514417  0.41739748     0.03900
C1038       C  0.05832236  0.82518460  0.43440071    -0.16600
H1039       H  0.10352634  0.84507487  0.43401204     0.05900
H1040       H  0.39635321  0.75327567  0.43384794     0.05900
C1041       C  0.45801746  0.76799990  0.05176436     0.03900
C1042       C  0.01716462  0.79116410  0.05172274     0.03900
C1043       C  0.04549378  0.80673424  0.07003755    -0.16600
C1044       C  0.01762165  0.80183720  0.08730210     0.03900
C1045       C  0.45947232  0.77893781  0.08690799     0.03900
C1046       C  0.43079152  0.76319958  0.06921616    -0.16600
H1047       H  0.38672109  0.74835785  0.06899379     0.05900
H1048       H  0.09024915  0.82471474  0.07093782     0.05900
C1049       C  0.07625566  0.90994692  0.37248653     0.14300
C1050       C  0.10170000  0.89080435  0.36166324     0.01300
C1051       C  0.11396595  0.85772036  0.37113000     0.16200
C1052       C  0.09575657  0.83957400  0.39015182     0.25700
C1053       C  0.06585284  0.85509545  0.40006157    -0.40700
C1054       C  0.06052581  0.89372656  0.39166826     0.32700
C1055       C  0.11167111  0.90323529  0.34045372     0.01300
F1056       F  0.14187086  0.84147610  0.36184759    -0.13000
F1057       F  0.03504880  0.91201463  0.40151233    -0.13500
C1058       C  0.13280036  0.95481815  0.33387843     0.16200
C1059       C  0.12813779  0.96440504  0.31441558     0.25700
C1060       C  0.11153493  0.92562760  0.30040723    -0.40600
C1061       C  0.09355780  0.87448385  0.30648657     0.32600
C1062       C  0.09159625  0.86275271  0.32649803     0.14300
F1063       F  0.15579145  0.99579508  0.34646071    -0.13000
F1064       F  0.07443037  0.83546805  0.29327376    -0.13500
F1065       F  0.13739577  0.01127362  0.30935118    -0.15800
F1066       F  0.06689596  0.81160071  0.33222539    -0.14300
F1067       F  0.06208153  0.94096537  0.36416393    -0.14300
F1068       F  0.59913644  0.79681601  0.39825551    -0.15800
C1069       C  0.03846187  0.79711005  0.14070979     0.14300
C1070       C  0.06150653  0.84996234  0.14615996     0.01300
C1071       C  0.08270106  0.88876202  0.13113949     0.16200
C1072       C  0.07471188  0.87420971  0.11148201     0.25700
C1073       C  0.04795744  0.82095006  0.10633166    -0.40700
C1074       C  0.03438886  0.78355846  0.12112637     0.32700
C1075       C  0.06276935  0.86471549  0.16711629     0.01300
F1076       F  0.10975401  0.94085505  0.13538306    -0.13000
F1077       F  0.01032995  0.73207759  0.11652644    -0.13500
C1078       C  0.07808902  0.84409462  0.18233402     0.16200
C1079       C  0.08517491  0.86192677  0.20145068     0.25700
C1080       C  0.07493760  0.89957145  0.20616793    -0.40600
C1081       C  0.05529965  0.91735941  0.19144286     0.32600
C1082       C  0.04977218  0.90060152  0.17221941     0.14300
F1083       F  0.08918817  0.80844253  0.17867917    -0.13000
F1084       F  0.04585711  0.95455778  0.19527643    -0.13500
F1085       F  0.10400714  0.84365210  0.21526221    -0.15800
F1086       F  0.03254313  0.92063032  0.15863238    -0.14300
F1087       F  0.01528194  0.75707207  0.15399034    -0.14300
F1088       F  0.08886726  0.91150881  0.09749822    -0.15800
C1089       C  0.19752275  0.64188176  0.32095961     0.14300
C1090       C  0.22560586  0.62800108  0.33361705     0.01300
C1091       C  0.25592946  0.61044592  0.32531503     0.16200
C1092       C  0.25370542  0.60232648  0.30517077     0.25700
C1093       C  0.21839797  0.60872486  0.29297406    -0.40700
C1094       C  0.19311733  0.63168801  0.30098281     0.32700
C1095       C  0.22214031  0.63160499  0.35527929     0.01300
F1096       F  0.28355875  0.59638260  0.33681643    -0.13000
F1097       F  0.16178605  0.64189692  0.28963304    -0.13500
C1098       C  0.16983575  0.60979928  0.36429988     0.16200
C1099       C  0.16711366  0.62099296  0.38377078     0.25700
C1100       C  0.21665295  0.65486680  0.39466733    -0.40600
C1101       C  0.26818962  0.67090764  0.38642943     0.32600
C1102       C  0.27086723  0.65965128  0.36695928     0.14300
F1103       F  0.12126309  0.57895215  0.35405736    -0.13000
F1104       F  0.31663688  0.70155509  0.39666611    -0.13500
F1105       F  0.11607643  0.60125424  0.39166497    -0.15800
F1106       F  0.32187722  0.68105105  0.35897719    -0.14300
F1107       F  0.17371872  0.66494609  0.32807960    -0.14300
F1108       F  0.27988594  0.58112176  0.29818104    -0.15800
C1109       C  0.18423181  0.56563830  0.16512312     0.14300
C1110       C  0.16861259  0.59940237  0.15927782     0.01300
C1111       C  0.15219077  0.61958131  0.17371004     0.16200
C1112       C  0.15369638  0.60826925  0.19343728     0.25700
C1113       C  0.17247117  0.57711580  0.19923575    -0.40700
C1114       C  0.18685341  0.55522806  0.18481972     0.32700
C1115       C  0.17417002  0.61694165  0.13849003     0.01300
F1116       F  0.13498467  0.65063923  0.16879220    -0.13000
F1117       F  0.20026214  0.52099315  0.18972667    -0.13500
C1118       C  0.13278772  0.61993027  0.12900360     0.16200
C1119       C  0.14414453  0.64589159  0.11090392     0.25700
C1120       C  0.19565155  0.66648472  0.10152225    -0.40600
C1121       C  0.23324614  0.65680524  0.10971272     0.32600
C1122       C  0.22404065  0.63516340  0.12839840     0.14300
F1123       F  0.08236604  0.59966274  0.13751012    -0.13000
F1124       F  0.28299683  0.67574020  0.10091534    -0.13500
F1125       F  0.10629357  0.65353665  0.10301685    -0.15800
F1126       F  0.26690756  0.63773585  0.13744679    -0.14300
F1127       F  0.19555091  0.54142082  0.15170465    -0.14300
F1128       F  0.13681543  0.62779431  0.20687642    -0.15800
C1129       C  0.43904520  0.77414860  0.36368634     0.14300
C1130       C  0.41464581  0.80144565  0.36019616     0.01300
C1131       C  0.40210524  0.82087012  0.37605852     0.16200
C1132       C  0.41664532  0.81504071  0.39507428     0.25700
C1133       C  0.44287494  0.78885827  0.39837514    -0.40700
C1134       C  0.45097972  0.76594982  0.38253717     0.32700
C1135       C  0.40427487  0.80939954  0.33967014     0.01300
F1136       F  0.37914524  0.84813392  0.37305265    -0.13000
F1137       F  0.47411743  0.73867704  0.38524145    -0.13500
C1138       C  0.35011118  0.77858738  0.33162543     0.16200
C1139       C  0.34196508  0.77832145  0.31148733     0.25700
C1140       C  0.38810190  0.81023794  0.29893640    -0.40600
C1141       C  0.44239424  0.84148792  0.30719452     0.32600
C1142       C  0.45002862  0.84148793  0.32728503     0.14300
F1143       F  0.30490871  0.74989142  0.34332710    -0.13000
F1144       F  0.48804745  0.87408507  0.29592976    -0.13500
F1145       F  0.28854248  0.74987547  0.30450072    -0.15800
F1146       F  0.50217788  0.87431417  0.33482697    -0.14300
F1147       F  0.45278249  0.75687886  0.34848092    -0.14300
F1148       F  0.40845631  0.83774509  0.41005914    -0.15800
C1149       C  0.43419790  0.83309086  0.13026045     0.14300
C1150       C  0.41257555  0.79030479  0.14368741     0.01300
C1151       C  0.39623036  0.74075637  0.13672898     0.16200
C1152       C  0.40504875  0.73499493  0.11728126     0.25700
C1153       C  0.43109060  0.77889843  0.10456763    -0.40700
C1154       C  0.44275019  0.82711886  0.11089838     0.32700
C1155       C  0.40553414  0.79720537  0.16461411     0.01300
F1156       F  0.37332898  0.69832638  0.14891670    -0.13000
F1157       F  0.96416220  0.86917124  0.09864520    -0.13500
C1158       C  0.38178675  0.82411367  0.16924893     0.16200
C1159       C  0.37717362  0.83365409  0.18839773     0.25700
C1160       C  0.39322600  0.81506073  0.20376181    -0.40600
C1161       C  0.41562532  0.78658405  0.19964434     0.32600
C1162       C  0.42208661  0.77789510  0.18014160     0.14300
F1163       F  0.36098082  0.83992307  0.15527558    -0.13000
F1164       F  0.43120309  0.76748839  0.21428674    -0.13500
F1165       F  0.35528706  0.86055169  0.19205082    -0.15800
F1166       F  0.44493464  0.75121273  0.17663443    -0.14300
F1167       F  0.45023543  0.88182271  0.13593722    -0.14300
F1168       F  0.39268664  0.68781162  0.11123349    -0.15800
C1169       C  0.26517537  0.96806278  0.35698205     0.14300
C1170       C  0.27092987  0.92636658  0.35419122     0.01300
C1171       C  0.26810160  0.89697387  0.37068679     0.16200
C1172       C  0.26383282  0.91113384  0.38936006     0.25700
C1173       C  0.26046179  0.95401478  0.39196688    -0.40700
C1174       C  0.25650234  0.97944575  0.37553325     0.32700
C1175       C  0.28222551  0.91535650  0.33438143     0.01300
F1176       F  0.27193480  0.85578322  0.36898079    -0.13000
F1177       F  0.24554135  0.51461518  0.37867882    -0.13500
C1178       C  0.32269308  0.90465743  0.33179886     0.16200
C1179       C  0.33668132  0.89903297  0.31325799     0.25700
C1180       C  0.30891173  0.90105644  0.29685024    -0.40600
C1181       C  0.26732691  0.90976305  0.29911745     0.32600
C1182       C  0.25468326  0.91770470  0.31767178     0.14300
F1183       F  0.35323441  0.90488891  0.34694994    -0.13000
F1184       F  0.23963065  0.91137237  0.28338464    -0.13500
F1185       F  0.37912331  0.89338382  0.31129851    -0.15800
F1186       F  0.21368126  0.92536225  0.31926882    -0.14300
F1187       F  0.27263181  0.00081276  0.34206704    -0.14300
F1188       F  0.26640904  0.88489466  0.40493168    -0.15800
C1189       C  0.29982559  0.91040116  0.12975938     0.14300
C1190       C  0.27449074  0.92091811  0.14451730     0.01300
C1191       C  0.23753183  0.93455429  0.13890799     0.16200
C1192       C  0.23026253  0.94194625  0.11929470     0.25700
C1193       C  0.26047231  0.93718944  0.10484022    -0.40700
C1194       C  0.29274915  0.91834895  0.11010106     0.32700
C1195       C  0.28809676  0.91992393  0.16555798     0.01300
F1196       F  0.21204092  0.94534075  0.15237189    -0.13000
F1197       F  0.32166962  0.91250385  0.09638397    -0.13500
C1198       C  0.34410843  0.94655751  0.17209028     0.16200
C1199       C  0.35655540  0.94654595  0.19181952     0.25700
C1200       C  0.31304463  0.91545023  0.20531765    -0.40600
C1201       C  0.25721525  0.89094251  0.19904025     0.32600
C1202       C  0.24514832  0.89344631  0.17944089     0.14300
F1203       F  0.38729118  0.97163160  0.15939190    -0.13000
F1204       F  0.21404460  0.86193931  0.21167364    -0.13500
F1205       F  0.41120065  0.97038894  0.19709184    -0.15800
F1206       F  0.19099010  0.86629118  0.17371876    -0.14300
F1207       F  0.33296232  0.89403821  0.13431853    -0.14300
F1208       F  0.19938514  0.96067234  0.11450219    -0.15800
C1209       C  0.38636389  0.61151493  0.36982945     0.14300
C1210       C  0.41641432  0.59198300  0.36277924     0.01300
C1211       C  0.42572485  0.56183726  0.37584029     0.16200
C1212       C  0.39667268  0.54333396  0.39354391     0.25700
C1213       C  0.36188767  0.55853709  0.39935360    -0.40700
C1214       C  0.36124638  0.59650970  0.38818567     0.32700
C1215       C  0.43144024  0.59820648  0.34147840     0.01300
F1216       F  0.46235244  0.54975076  0.37152046    -0.13000
F1217       F  0.33045663  0.61406787  0.39401500    -0.13500
C1218       C  0.44836073  0.64470644  0.33107335     0.16200
C1219       C  0.44920252  0.64636702  0.31074075     0.25700
C1220       C  0.43882728  0.60295832  0.30001998    -0.40600
C1221       C  0.42833768  0.55858615  0.31046274     0.32600
C1222       C  0.42406391  0.55609028  0.33081433     0.14300
F1223       F  0.46895606  0.69020348  0.34066389    -0.13000
F1224       F  0.42461328  0.51851310  0.30104773    -0.13500
F1225       F  0.46509777  0.69255821  0.30172358    -0.15800
F1226       F  0.41496170  0.51309520  0.34008216    -0.14300
F1227       F  0.37695040  0.64162658  0.35837452    -0.14300
F1228       F  0.40043873  0.50862802  0.40461852    -0.15800
C1229       C  0.34985754  0.55555720  0.17846732     0.14300
C1230       C  0.39049892  0.57259145  0.16358893     0.01300
C1231       C  0.44568015  0.59148012  0.16934536     0.16200
C1232       C  0.45862622  0.59078619  0.18883487     0.25700
C1233       C  0.42086240  0.58197553  0.20334435    -0.40700
C1234       C  0.36600241  0.56383391  0.19812739     0.32700
C1235       C  0.37531655  0.56909183  0.14240032     0.01300
F1236       F  0.48847728  0.61363607  0.15643824    -0.13000
F1237       F  0.32779299  0.55233369  0.21201226    -0.13500
C1238       C  0.33485477  0.57778707  0.13611969     0.16200
C1239       C  0.31456470  0.56733638  0.11695820     0.25700
C1240       C  0.33624791  0.55030163  0.10350761    -0.40600
C1241       C  0.38165140  0.54850550  0.10889188     0.32600
C1242       C  0.39964350  0.55571318  0.12816427     0.14300
F1243       F  0.31344493  0.59464119  0.14873156    -0.13000
F1244       F  0.40044640  0.03227433  0.09580460    -0.13500
F1245       F  0.27082383  0.56967387  0.11192766    -0.15800
F1246       F  0.43439409  0.04280009  0.13263612    -0.14300
F1247       F  0.29437281  0.52943849  0.17421062    -0.14300
F1248       F  0.51058325  0.60389099  0.19360385    -0.15800
C1249       C  0.13723614  0.76738399  0.32504741     0.14300
C1250       C  0.11484854  0.72306520  0.33749085     0.01300
C1251       C  0.08294637  0.67212194  0.32975969     0.16200
C1252       C  0.07696435  0.66577205  0.30979402     0.25700
C1253       C  0.09857412  0.71015442  0.29727310    -0.40700
C1254       C  0.12752069  0.76094834  0.30506313     0.32700
C1255       C  0.13488271  0.72908446  0.35757101     0.01300
F1256       F  0.06214233  0.62865755  0.34142673    -0.13000
F1257       F  0.14802931  0.80403976  0.29329235    -0.13500
C1258       C  0.09712002  0.70647370  0.37317161     0.16200
C1259       C  0.11544731  0.70147879  0.39141612     0.25700
C1260       C  0.17177236  0.71946037  0.39412044    -0.40600
C1261       C  0.21003640  0.74547182  0.37883119     0.32600
C1262       C  0.19143052  0.74916956  0.36058569     0.14300
F1263       F  0.04221055  0.68696173  0.37045476    -0.13000
F1264       F  0.26522671  0.76577702  0.38146160    -0.13500
F1265       F  0.07770199  0.67621012  0.40603801    -0.15800
F1266       F  0.22813590  0.77024984  0.34554363    -0.14300
F1267       F  0.17009791  0.81675270  0.33224034    -0.14300
F1268       F  0.04920973  0.61578714  0.30278098    -0.15800
C1269       C  0.23518940  0.76150515  0.14315139     0.14300
C1270       C  0.19519631  0.77113299  0.14822961     0.01300
C1271       C  0.17593513  0.78958604  0.13347651     0.16200
C1272       C  0.18607785  0.78675523  0.11390356     0.25700
C1273       C  0.22196235  0.77227831  0.10892834    -0.40700
C1274       C  0.25217032  0.76729530  0.12388260     0.32700
C1275       C  0.16848248  0.75634009  0.16788078     0.01300
F1276       F  0.14499884  0.80795346  0.13794217    -0.13000
F1277       F  0.29486636  0.76326742  0.11963162    -0.13500
C1278       C  0.19878704  0.76319312  0.18517684     0.16200
C1279       C  0.17111975  0.74411701  0.20306115     0.25700
C1280       C  0.11374686  0.72207465  0.20418851    -0.40600
C1281       C  0.08417230  0.71799156  0.18735041     0.32600
C1282       C  0.11006501  0.73122133  0.16930671     0.14300
F1283       F  0.25498493  0.78840851  0.18493353    -0.13000
F1284       F  0.02969890  0.70104885  0.18836356    -0.13500
F1285       F  0.20037325  0.74817132  0.21928754    -0.15800
F1286       F  0.07714601  0.71724181  0.15321505    -0.14300
F1287       F  0.25416614  0.74165789  0.15617590    -0.14300
F1288       F  0.15879674  0.79568256  0.10000075    -0.15800
C1289       C  0.34374126  0.77978302  0.82294982     0.14300
C1290       C  0.37675540  0.77926201  0.83802593     0.01300
C1291       C  0.42363488  0.77975456  0.83332246     0.16200
C1292       C  0.43792447  0.78165868  0.81401177     0.25700
C1293       C  0.40749182  0.78579104  0.79901961    -0.40700
C1294       C  0.36025059  0.78499641  0.80352773     0.32700
C1295       C  0.36531765  0.78180537  0.85865835     0.01300
F1296       F  0.45639113  0.77951517  0.84751369    -0.13000
F1297       F  0.33100034  0.79022597  0.78926077    -0.13500
C1298       C  0.31396463  0.74180973  0.86717372     0.16200
C1299       C  0.30343885  0.74514363  0.88659821     0.25700
C1300       C  0.34312742  0.78983716  0.89743637    -0.40600
C1301       C  0.39562104  0.82841005  0.88935070     0.32600
C1302       C  0.40667608  0.82450438  0.87006656     0.14300
F1303       F  0.27316887  0.70067064  0.85652551    -0.13000
F1304       F  0.43471654  0.87145027  0.89980400    -0.13500
F1305       F  0.25273147  0.70705641  0.89436590    -0.15800
F1306       F  0.45656244  0.86398726  0.86220013    -0.14300
F1307       F  0.29712034  0.77757335  0.82703064    -0.14300
F1308       F  0.48426808  0.78336968  0.80996588    -0.15800
C1309       C  0.13406719  0.86162383  0.82614707     0.14300
C1310       C  0.15816807  0.91251639  0.83308200     0.01300
C1311       C  0.17065577  0.95297239  0.81987736     0.16200
C1312       C  0.15261352  0.94128298  0.80056425     0.25700
C1313       C  0.12125111  0.88845799  0.79420705    -0.40700
C1314       C  0.11618218  0.84928888  0.80680557     0.32700
C1315       C  0.16053599  0.92047866  0.85431777     0.01300
F1316       F  0.19796833  0.00339181  0.82587631    -0.13000
F1317       F  0.08827516  0.79799997  0.80120891    -0.13500
C1318       C  0.19776015  0.91726872  0.86645935     0.16200
C1319       C  0.19941379  0.92572485  0.88645077     0.25700
C1320       C  0.16385517  0.93757702  0.89449845    -0.40600
C1321       C  0.12259800  0.93499272  0.88267635     0.32600
C1322       C  0.12134184  0.92702241  0.86271802     0.14300
F1323       F  0.23429027  0.90853689  0.85889617    -0.13000
F1324       F  0.08601508  0.94376251  0.89030697    -0.13500
F1325       F  0.23311151  0.42504506  0.89801511    -0.15800
F1326       F  0.08216272  0.92620779  0.85147857    -0.14300
F1327       F  0.12435991  0.82332932  0.83875089    -0.14300
F1328       F  0.16257774  0.98108725  0.78847897    -0.15800
C1329       C  0.10522955  0.91361669  0.67079319     0.14300
C1330       C  0.13885949  0.89637986  0.66584450     0.01300
C1331       C  0.15842410  0.87892250  0.68077610     0.16200
C1332       C  0.13991047  0.87372060  0.69984351     0.25700
C1333       C  0.10378935  0.88820599  0.70437010    -0.40700
C1334       C  0.08839148  0.91009049  0.68985504     0.32700
C1335       C  0.15409850  0.89879316  0.64520250     0.01300
F1336       F  0.19406512  0.86545383  0.67696013    -0.13000
F1337       F  0.05421905  0.92532360  0.69385886    -0.13500
C1338       C  0.21065556  0.92528437  0.63974657     0.16200
C1339       C  0.22602012  0.93897391  0.62032451     0.25700
C1340       C  0.18500088  0.92618275  0.60617336    -0.40600
C1341       C  0.12812495  0.89469698  0.61117412     0.32600
C1342       C  0.11262819  0.88072745  0.63057324     0.14300
F1343       F  0.25159895  0.94216607  0.65330290    -0.13000
F1344       F  0.08802757  0.88156008  0.59751912    -0.13500
F1345       F  0.28136636  0.96903258  0.61555139    -0.15800
F1346       F  0.05722691  0.85233393  0.63518718    -0.14300
F1347       F  0.08910222  0.93471316  0.65718496    -0.14300
F1348       F  0.15683992  0.85421466  0.71385885    -0.15800
C1349       C  0.38435667  0.78704697  0.63159183     0.14300
C1350       C  0.34336876  0.76171335  0.64624973     0.01300
C1351       C  0.28649827  0.73000897  0.64092377     0.16200
C1352       C  0.27043644  0.72376585  0.62135687     0.25700
C1353       C  0.31112782  0.75137900  0.60674919    -0.40700
C1354       C  0.36836549  0.78134677  0.61195142     0.32700
C1355       C  0.35937101  0.77064659  0.66714780     0.01300
F1356       F  0.24666895  0.70974489  0.65485157    -0.13000
F1357       F  0.40848017  0.80904123  0.59819005    -0.13500
C1358       C  0.38781646  0.82181146  0.67477693     0.16200
C1359       C  0.40401662  0.83091040  0.69428409     0.25700
C1360       C  0.39509074  0.78933516  0.70640663    -0.40600
C1361       C  0.36417998  0.73754278  0.69902251     0.32600
C1362       C  0.34554356  0.72822965  0.67969543     0.14300
F1363       F  0.40106188  0.86348373  0.66324041    -0.13000
F1364       F  0.35318140  0.69604437  0.71032223    -0.13500
F1365       F  0.43167938  0.88132204  0.70086141    -0.15800
F1366       F  0.31597354  0.67794301  0.67311174    -0.14300
F1367       F  0.43973562  0.81942524  0.63636806    -0.14300
F1368       F  0.21487677  0.69481194  0.61671089    -0.15800
C1369       C  0.04333561  0.65107977  0.87338121     0.14300
C1370       C  0.04191946  0.67796106  0.85688098     0.01300
C1371       C  0.03695159  0.72005567  0.85974297     0.16200
C1372       C  0.03366390  0.73530851  0.87839024     0.25700
C1373       C  0.03172820  0.70671383  0.89481937    -0.40700
C1374       C  0.03837817  0.66538682  0.89219234     0.32700
C1375       C  0.04988770  0.66597512  0.83668091     0.01300
F1376       F  0.03124193  0.74423108  0.84430191    -0.13000
F1377       F  0.55234737  0.65005233  0.90903938    -0.13500
C1378       C  0.01046633  0.61794254  0.82728631     0.16200
C1379       C  0.01775984  0.61057704  0.80770162     0.25700
C1380       C  0.06550335  0.65072128  0.79714552    -0.40600
C1381       C  0.10521484  0.69824881  0.80688858     0.32600
C1382       C  0.09734410  0.70521581  0.82625333     0.14300
F1383       F  0.96507066  0.57789845  0.83699104    -0.13000
F1384       F  0.15319549  0.73784183  0.79802298    -0.13500
F1385       F  0.97850738  0.56366255  0.79927843    -0.15800
F1386       F  0.13769491  0.75008900  0.83525856    -0.14300
F1387       F  0.04745143  0.60986995  0.87126714    -0.14300
F1388       F  0.02650286  0.77473063  0.88030723    -0.15800
C1389       C  0.16916790  0.58295180  0.87332184     0.14300
C1390       C  0.20043229  0.58207554  0.85806186     0.01300
C1391       C  0.23791923  0.56861074  0.86269353     0.16200
C1392       C  0.24141994  0.55293738  0.88150376     0.25700
C1393       C  0.20558302  0.54788223  0.89606938    -0.40700
C1394       C  0.17118987  0.56533657  0.89212705     0.32700
C1395       C  0.18994217  0.58911046  0.83716016     0.01300
F1396       F  0.26788843  0.56616271  0.84861198    -0.13000
F1397       F  0.13716082  0.56230583  0.90614598    -0.13500
C1398       C  0.23460851  0.61981552  0.82389328     0.16200
C1399       C  0.22438964  0.62016976  0.80395555     0.25700
C1400       C  0.16928199  0.58933801  0.79658023    -0.40600
C1401       C  0.12448679  0.55920190  0.80976178     0.32600
C1402       C  0.13463796  0.55911519  0.82970721     0.14300
F1403       F  0.28860923  0.64986745  0.83006106    -0.13000
F1404       F  0.07025013  0.53122280  0.80349648    -0.13500
F1405       F  0.26863937  0.65093029  0.79186425    -0.15800
F1406       F  0.09008659  0.52770014  0.84159885    -0.14300
F1407       F  0.13541484  0.59929614  0.86989479    -0.14300
F1408       F  0.28060974  0.04390536  0.88570206    -0.15800
C1409       C  0.19621787  0.54751931  0.67773282     0.14300
C1410       C  0.18634206  0.56969316  0.66151106     0.01300
C1411       C  0.16563995  0.60005545  0.66470302     0.16200
C1412       C  0.15828083  0.61094425  0.68364724     0.25700
C1413       C  0.16725486  0.58826036  0.69993230    -0.40700
C1414       C  0.18569633  0.55577804  0.69677721     0.32700
C1415       C  0.19505613  0.55920439  0.64125017     0.01300
F1416       F  0.15249459  0.61918406  0.64934703    -0.13000
F1417       F  0.19342837  0.53212124  0.71204874    -0.13500
C1418       C  0.14875779  0.52502425  0.62919562     0.16200
C1419       C  0.15666933  0.51042763  0.61103991     0.25700
C1420       C  0.21103586  0.52981371  0.60456606    -0.40600
C1421       C  0.25732156  0.56888784  0.61549895     0.32600
C1422       C  0.24941625  0.58359818  0.63363942     0.14300
F1423       F  0.09579327  0.50531427  0.63509334    -0.13000
F1424       F  0.31010266  0.59178416  0.60877411    -0.13500
F1425       F  0.11158013  0.98229759  0.59866119    -0.15800
F1426       F  0.29491348  0.62198526  0.64364674    -0.14300
F1427       F  0.21346391  0.51577566  0.67499734    -0.14300
F1428       F  0.14120188  0.64302042  0.68605096    -0.15800
C1429       C  0.01890208  0.62405426  0.67057465     0.14300
C1430       C  0.05287207  0.67666514  0.66338959     0.01300
C1431       C  0.08355194  0.71774880  0.67688636     0.16200
C1432       C  0.08331701  0.70677712  0.69663709     0.25700
C1433       C  0.05535519  0.65418357  0.70335481    -0.40700
C1434       C  0.02180798  0.61284993  0.69018167     0.32700
C1435       C  0.05791485  0.68850267  0.64201369     0.01300
F1436       F  0.11735682  0.76876596  0.67093820    -0.13000
F1437       F  0.99728214  0.56159159  0.69571025    -0.13500
C1438       C  0.05860094  0.73175895  0.63454777     0.16200
C1439       C  0.06000527  0.74053362  0.61457488     0.25700
C1440       C  0.05359850  0.70307079  0.60164047    -0.40600
C1441       C  0.05790335  0.66267296  0.60864899     0.32600
C1442       C  0.06166504  0.65634207  0.62869311     0.14300
F1443       F  0.05176475  0.76239152  0.64624257    -0.13000
F1444       F  0.05378433  0.62688824  0.59626875    -0.13500
F1445       F  0.05787712  0.78072445  0.60773048    -0.15800
F1446       F  0.06625458  0.61713559  0.63499657    -0.14300
F1447       F  0.98464959  0.58306347  0.65853496    -0.14300
F1448       F  0.11478630  0.74790933  0.70893044    -0.15800
C1449       C  0.40477529  0.63470483  0.82310306     0.14300
C1450       C  0.37623952  0.59519729  0.83770232     0.01300
C1451       C  0.33932700  0.54216412  0.83183425     0.16200
C1452       C  0.33218491  0.52929908  0.81214333     0.25700
C1453       C  0.36455436  0.56843853  0.79789029    -0.40700
C1454       C  0.40081631  0.62135898  0.80350710     0.32700
C1455       C  0.38455878  0.60908033  0.85885541     0.01300
F1456       F  0.30843376  0.50286366  0.84510674    -0.13000
F1457       F  0.43164110  0.66017126  0.79002535    -0.13500
C1458       C  0.38085564  0.64967328  0.86572424     0.16200
C1459       C  0.39335503  0.66571476  0.88506447     0.25700
C1460       C  0.41156304  0.64269719  0.89786588    -0.40600
C1461       C  0.41046628  0.59904961  0.89174118     0.32600
C1462       C  0.39693876  0.58227691  0.87244378     0.14300
F1463       F  0.36583794  0.67456851  0.85370401    -0.13000
F1464       F  0.42679563  0.57538993  0.90406069    -0.13500
F1465       F  0.39280114  0.70719391  0.89084746    -0.15800
F1466       F  0.39907977  0.54169952  0.86691589    -0.14300
F1467       F  0.43687394  0.68641424  0.82768665    -0.14300
F1468       F  0.29458017  0.47803827  0.80702543    -0.15800
C1469       C  0.27291674  0.86861906  0.82210896     0.14300
C1470       C  0.32027721  0.88302340  0.83339378     0.01300
C1471       C  0.37185155  0.90539075  0.82374372     0.16200
C1472       C  0.37656398  0.91762859  0.80377357     0.25700
C1473       C  0.32944224  0.90660936  0.79293166    -0.40700
C1474       C  0.27686774  0.87856669  0.80219150     0.32700
C1475       C  0.31490200  0.87441190  0.85500235     0.01300
F1476       F  0.41785815  0.91573551  0.83357896    -0.13000
F1477       F  0.22935699  0.86447616  0.79239694    -0.13500
C1478       C  0.26824135  0.82693985  0.86302991     0.16200
C1479       C  0.26109761  0.81953466  0.88307188     0.25700
C1480       C  0.30381008  0.85614001  0.89568423    -0.40600
C1481       C  0.35000389  0.90419465  0.88804508     0.32600
C1482       C  0.35481017  0.91386655  0.86789281     0.14300
F1483       F  0.23183946  0.78537158  0.85160924    -0.13000
F1484       F  0.39238889  0.93990229  0.89995630    -0.13500
F1485       F  0.21585160  0.77298444  0.89016620    -0.15800
F1486       F  0.39950529  0.96100575  0.86103015    -0.14300
F1487       F  0.22272387  0.84778152  0.83051227    -0.14300
F1488       F  0.42777100  0.94220769  0.79531112    -0.15800
C1489       C  0.43497430  0.66063308  0.67926862     0.14300
C1490       C  0.39744629  0.62845576  0.66429613     0.01300
C1491       C  0.34749805  0.57968515  0.66945999     0.16200
C1492       C  0.33663141  0.56194333  0.68874582     0.25700
C1493       C  0.37573416  0.59218747  0.70352383    -0.40700
C1494       C  0.42466630  0.64223272  0.69867273     0.32700
C1495       C  0.41176718  0.64270747  0.64326196     0.01300
F1496       F  0.31010726  0.54764866  0.65560038    -0.13000
F1497       F  0.46352272  0.67228960  0.71255941    -0.13500
C1498       C  0.40898569  0.60599633  0.63057155     0.16200
C1499       C  0.42386412  0.61880137  0.61107459     0.25700
C1500       C  0.44211440  0.66879462  0.60362218    -0.40600
C1501       C  0.44217769  0.70488601  0.61583747     0.32600
C1502       C  0.42786930  0.69218170  0.63558453     0.14300
F1503       F  0.39391664  0.55806118  0.63716766    -0.13000
F1504       F  0.46004096  0.75371197  0.60898644    -0.13500
F1505       F  0.42312950  0.58314143  0.59958655    -0.15800
F1506       F  0.43086312  0.72847365  0.64730854    -0.14300
F1507       F  0.48340360  0.70827636  0.67503295    -0.14300
F1508       F  0.29091254  0.51197820  0.69258934    -0.15800
C1509       C  0.34789215  0.93646089  0.66539960     0.14300
C1510       C  0.31046895  0.88213194  0.66163394     0.01300
C1511       C  0.28555604  0.84637148  0.67752961     0.16200
C1512       C  0.29659275  0.86534327  0.69664567     0.25700
C1513       C  0.33406802  0.91996472  0.70011434    -0.40700
C1514       C  0.36012680  0.95507868  0.68433222     0.32700
C1515       C  0.29898878  0.86370979  0.64113264     0.01300
F1516       F  0.25070097  0.79330008  0.67460452    -0.13000
F1517       F  0.39421982  0.00815084  0.68715552    -0.13500
C1518       C  0.34385491  0.88273526  0.62806873     0.16200
C1519       C  0.33363975  0.86378401  0.60918756     0.25700
C1520       C  0.27897510  0.82347640  0.60322154    -0.40600
C1521       C  0.23369324  0.80737405  0.61548207     0.32600
C1522       C  0.24356611  0.82777549  0.63425733     0.14300
F1523       F  0.39814511  0.91744843  0.63377249    -0.13000
F1524       F  0.18046394  0.76922840  0.60975603    -0.13500
F1525       F  0.37785464  0.88133894  0.59719063    -0.15800
F1526       F  0.19902967  0.81169960  0.64576183    -0.14300
F1527       F  0.37045907  0.97200398  0.65057083    -0.14300
F1528       F  0.27055571  0.83061948  0.71171253    -0.15800
O1529       O  0.82461359  0.28165637  0.98321778    -0.79300
O1530       O  0.79855001  0.10137291  0.03726739    -0.63900
O1531       O  0.84217709  0.21415978  0.00112597    -1.10500
C1532       C  0.76535137  0.06022236  0.96409268     1.07600
O1533       O  0.80837176  0.04790255  0.01733684    -0.77200
O1534       O  0.89986916  0.13717699  0.97376881    -0.64700
Ni1535     Ni  0.86421735  0.28111720  0.00605641     1.34900
C1536       C  0.91304798  0.18066899  0.96584007     0.86400
O1537       O  0.89485972  0.20179601  0.02919107    -0.77700
O1538       O  0.90801795  0.28206130  0.02850343    -0.88000
C1539       C  0.79721825  0.05891053  0.03382875     0.85900
O1540       O  0.80003694  0.25781066  0.02188886    -0.66200
O1541       O  0.78929535  0.04717360  0.97665158    -0.85500
C1542       C  0.78527827  0.22892345  0.03709875     0.86800
C1543       C  0.92094089  0.25034925  0.03470364     1.08300
H1544       H  0.77668708  0.09541814  0.99981364     0.40100
O1545       O  0.81572423  0.12522185  0.99904420    -1.08100
O1546       O  0.88554289  0.19981725  0.96920315    -0.64800
Ni1547     Ni  0.81164969  0.16686716  0.98064879     1.26300
O1548       O  0.80083195  0.19733011  0.04014653    -0.65000
O1549       O  0.77694448  0.10793307  0.96272370    -0.77300
C1550       C  0.81024320  0.25744786  0.96690062     0.86200
O1551       O  0.80473648  0.21345630  0.96392605    -0.64500
Ni1552     Ni  0.85130479  0.09257636  0.99521427     1.27400
Ni1553     Ni  0.81720411  0.16186433  0.02058159     1.26100
H1554       H  0.88038820  0.22592347  0.99915813     0.40700
O1555       O  0.80762556  0.04129829  0.48162634    -0.79300
O1556       O  0.81124835  0.20027299  0.53711522    -0.63900
O1557       O  0.82467198  0.12003611  0.50084646    -1.10500
C1558       C  0.92830725  0.25560444  0.46809045     1.07600
O1559       O  0.80574026  0.25683727  0.51726562    -0.77200
O1560       O  0.78992970  0.23896095  0.47779124    -0.64700
Ni1561     Ni  0.85827189  0.08508455  0.50272659     1.34900
C1562       C  0.78227369  0.21350461  0.46237979     0.86400
O1563       O  0.78995460  0.10047530  0.53773367    -0.77700
O1564       O  0.80271985  0.04180894  0.52353045    -0.88000
C1565       C  0.79861936  0.23345747  0.53388549     0.85900
O1566       O  0.91402716  0.12975253  0.52230309    -0.66200
O1567       O  0.90768958  0.28138118  0.47392778    -0.85500
C1568       C  0.92604087  0.17044505  0.53157484     0.86800
C1569       C  0.78137703  0.05463161  0.53682913     1.08300
H1570       H  0.88764521  0.22452256  0.50227121     0.40100
O1571       O  0.84830578  0.20826294  0.49983732    -1.08100
O1572       O  0.81005334  0.19368529  0.45971171    -0.64800
Ni1573     Ni  0.82614720  0.15925629  0.47972859     1.26300
O1574       O  0.89572046  0.18821530  0.53039206    -0.65000
O1575       O  0.90504549  0.20577733  0.47225314    -0.77300
C1576       C  0.79974331  0.05724539  0.46520011     0.86200
O1577       O  0.80890612  0.10332573  0.46219489    -0.64500
Ni1578     Ni  0.85452400  0.26923787  0.49514713     1.27400
Ni1579     Ni  0.82060169  0.15841056  0.51977855     1.26100
H1580       H  0.78537872  0.09071644  0.50024139     0.40700
O1581       O  0.90604877  0.07394729  0.72832695    -0.72800
O1582       O  0.89233689  0.47257736  0.76659142    -0.72800
O1583       O  0.89218746  0.47714194  0.72625543    -0.72900
O1584       O  0.90389356  0.06657163  0.76840048    -0.72900
O1585       O  0.81139368  0.02855616  0.76792950    -0.72900
O1586       O  0.79906831  0.43556001  0.72629359    -0.72800
O1587       O  0.79963516  0.43164515  0.76593268    -0.72800
O1588       O  0.81372180  0.03622917  0.72780876    -0.72900
Ni1589     Ni  0.90328073  0.52322258  0.74706453     1.25400
Ni1590     Ni  0.80372031  0.47902968  0.74674476     1.25400
C1591       C  0.86295494  0.06933966  0.72075232     0.89400
C1592       C  0.84357342  0.43868218  0.77381395     0.89300
C1593       C  0.84341086  0.44394683  0.71877346     0.89300
C1594       C  0.85966771  0.05833555  0.77607749     0.89500
O1595       O  0.60854626  0.06348858  0.72787554    -0.72800
O1596       O  0.55079719  0.09858381  0.77049508    -0.72800
O1597       O  0.54650984  0.10129576  0.73032797    -0.72900
O1598       O  0.61154050  0.06020305  0.76847252    -0.72900
O1599       O  0.68992632  0.14242555  0.76827907    -0.72900
O1600       O  0.62473248  0.18359535  0.73020757    -0.72800
O1601       O  0.62905818  0.18062569  0.77001744    -0.72800
O1602       O  0.68642236  0.14616138  0.72774865    -0.72900
Ni1603     Ni  0.57662154  0.07786445  0.74925184     1.25400
Ni1604     Ni  0.66036815  0.16598485  0.74904940     1.25400
C1605       C  0.65485888  0.10060437  0.71980401     0.89400
C1606       C  0.58265789  0.14461196  0.77818212     0.89300
C1607       C  0.57672875  0.14804388  0.72288363     0.89300
C1608       C  0.65820366  0.09651606  0.77636042     0.89500
O1609       O  0.57545706  0.40140821  0.76991630    -0.72800
O1610       O  0.95898215  0.35878603  0.73140221    -0.72800
O1611       O  0.96070303  0.35544225  0.77128877    -0.72900
O1612       O  0.56909964  0.40076725  0.73055418    -0.72900
O1613       O  0.55827818  0.32304326  0.73046472    -0.72900
O1614       O  0.94914920  0.27740115  0.77068620    -0.72800
O1615       O  0.94655751  0.28056480  0.73064105    -0.72800
O1616       O  0.56365770  0.32340616  0.77003591    -0.72900
Ni1617     Ni  0.01568116  0.38418604  0.75107150     1.25400
Ni1618     Ni  0.00273899  0.30044104  0.75031865     1.25400
C1619       C  0.58755305  0.37024748  0.77675519     0.89400
C1620       C  0.93747087  0.31369802  0.72349759     0.89300
C1621       C  0.94035865  0.30924033  0.77850657     0.89300
C1622       C  0.57892171  0.36920970  0.72316370     0.89500
C1623       C  0.96779126  0.18979111  0.54793734     0.03900
C1624       C  0.52737136  0.20729820  0.54755124     0.03900
C1625       C  0.55450005  0.21093353  0.56528804    -0.16600
C1626       C  0.52670565  0.19750072  0.58309559     0.03900
C1627       C  0.96836307  0.18408002  0.58356522     0.03900
C1628       C  0.94245321  0.18271056  0.56617374    -0.16600
H1629       H  0.89980244  0.17186976  0.56690233     0.05900
H1630       H  0.59851224  0.22563664  0.56536212     0.05900
C1631       C  0.74688351  0.01719540  0.55312137     0.03900
C1632       C  0.72455707  0.46181319  0.55309749     0.03900
C1633       C  0.70886625  0.43447558  0.57116305    -0.16600
C1634       C  0.70914041  0.45848035  0.58823373     0.03900
C1635       C  0.71672698  0.01157094  0.58695616     0.03900
C1636       C  0.74285436  0.04076197  0.57000888    -0.16600
H1637       H  0.76015344  0.08263484  0.57020193     0.05900
H1638       H  0.69343884  0.39305487  0.57202130     0.05900
C1639       C  0.80601330  0.28448768  0.94955091     0.03900
C1640       C  0.78706184  0.31832001  0.94932227     0.03900
C1641       C  0.78826963  0.34266669  0.93149427    -0.16600
C1642       C  0.80812343  0.33505088  0.91444824     0.03900
C1643       C  0.82731977  0.30242494  0.91488598     0.03900
C1644       C  0.82582899  0.27753989  0.93213490    -0.16600
H1645       H  0.84139654  0.25301553  0.93190329     0.05900
H1646       H  0.77309298  0.36751041  0.93077343     0.05900
C1647       C  0.74785957  0.26983648  0.55147141     0.03900
C1648       C  0.78074872  0.24855240  0.55136711     0.03900
C1649       C  0.80232788  0.24424354  0.56939121    -0.16600
C1650       C  0.79810598  0.26549890  0.58636831     0.03900
C1651       C  0.77519890  0.29486831  0.58544951     0.03900
C1652       C  0.74875180  0.29519643  0.56852899    -0.16600
H1653       H  0.72874675  0.31580101  0.56889672     0.05900
H1654       H  0.82457348  0.22575758  0.57033457     0.05900
C1655       C  0.69297647  0.46215958  0.94874354     0.03900
C1656       C  0.72604618  0.02164801  0.94867996     0.03900
C1657       C  0.72758582  0.04812445  0.93130449    -0.16600
C1658       C  0.70162583  0.02173215  0.91422474     0.03900
C1659       C  0.67733295  0.46409206  0.91349449     0.03900
C1660       C  0.67194904  0.43645433  0.93067424    -0.16600
H1661       H  0.65045612  0.39379266  0.92990429     0.05900
H1662       H  0.75230618  0.09105386  0.93034428     0.05900
C1663       C  0.51065988  0.23864541  0.94698664     0.03900
C1664       C  0.94973217  0.20057209  0.94823711     0.03900
C1665       C  0.91905962  0.17317509  0.93133811    -0.16600
C1666       C  0.94547013  0.17744840  0.91396767     0.03900
C1667       C  0.50450776  0.20886322  0.91317193     0.03900
C1668       C  0.53603914  0.23999372  0.92918765    -0.16600
H1669       H  0.58126157  0.26616298  0.92745489     0.05900
H1670       H  0.87348741  0.14630840  0.93185193     0.05900
O1671       O  0.68536535  0.22416879  0.48071895    -0.79300
O1672       O  0.69258505  0.38022014  0.53745270    -0.63900
O1673       O  0.64752940  0.27637612  0.49846536    -1.10500
C1674       C  0.71508435  0.43292739  0.46240467     1.07600
O1675       O  0.69647720  0.44481565  0.51915808    -0.77200
O1676       O  0.58505525  0.35868856  0.47915644    -0.64700
Ni1677     Ni  0.63710722  0.21308332  0.50275975     1.34900
C1678       C  0.57156301  0.31892894  0.46892925     0.86400
O1679       O  0.59222543  0.28002392  0.52653854    -0.77700
O1680       O  0.58484214  0.20215695  0.52415450    -0.88000
C1681       C  0.70513850  0.42782915  0.53522938     0.85900
O1682       O  0.70110583  0.23999166  0.52016230    -0.66200
O1683       O  0.69598995  0.44528690  0.47671873    -0.85500
C1684       C  0.70968284  0.26568661  0.53558389     0.86800
C1685       C  0.56700136  0.22973522  0.53059362     1.08300
H1686       H  0.71513199  0.39483190  0.49886694     0.40100
O1687       O  0.67552232  0.36629155  0.49834206    -1.08100
O1688       O  0.60100001  0.30010102  0.46869814    -0.64800
Ni1689     Ni  0.67639259  0.32729237  0.47864611     1.26300
O1690       O  0.68307253  0.28636730  0.53840252    -0.65000
O1691       O  0.70716041  0.38713356  0.46077468    -0.77300
C1692       C  0.69413415  0.24823347  0.46416737     0.86200
O1693       O  0.68383991  0.28352049  0.46093377    -0.64500
Ni1694     Ni  0.64306865  0.40212232  0.49821955     1.27400
Ni1695     Ni  0.67144038  0.32446438  0.51901095     1.26100
H1696       H  0.60846011  0.26167887  0.49624128     0.40700
O1697       O  0.53748099  0.31074191  0.01752076    -0.79300
O1698       O  0.71758394  0.32590267  0.96247491    -0.63900
O1699       O  0.62107499  0.32641645  0.99792120    -1.10500
C1700       C  0.75345896  0.43402229  0.03230484     1.07600
O1701       O  0.78903407  0.34237589  0.98266282    -0.77200
O1702       O  0.76859497  0.32158632  0.02227359    -0.64700
Ni1703     Ni  0.58077870  0.35466919  0.99468441     1.34900
C1704       C  0.73908507  0.30816998  0.03758511     0.86400
O1705       O  0.60363783  0.29286512  0.96081692    -0.77700
O1706       O  0.53561643  0.29636504  0.97542027    -0.88000
C1707       C  0.76260936  0.32831131  0.96614896     0.85900
O1708       O  0.62544924  0.40547792  0.97352023    -0.66200
O1709       O  0.78914905  0.42389341  0.02675860    -0.85500
C1710       C  0.67262052  0.42258939  0.96551396     0.86800
C1711       C  0.55165236  0.27764729  0.96233555     1.08300
H1712       H  0.72856946  0.39383202  0.99749036     0.40100
O1713       O  0.71776687  0.35830038  0.99978377    -1.08100
O1714       O  0.70635819  0.32330062  0.03991113    -0.64800
Ni1715     Ni  0.66419457  0.33235862  0.01957294     1.26300
O1716       O  0.69553181  0.39807990  0.96794737    -0.65000
O1717       O  0.70147445  0.40584470  0.02681929    -0.77300
C1718       C  0.55424363  0.30374137  0.03418111     0.86200
O1719       O  0.60240183  0.31079312  0.03695592    -0.64500
Ni1720     Ni  0.78928749  0.38105445  0.00509746     1.27400
Ni1721     Ni  0.66657658  0.32797197  0.97917103     1.26100
H1722       H  0.59187157  0.28879647  0.99881143     0.40700
O1723       O  0.94835588  0.14088187  0.22917775    -0.72800
O1724       O  0.55782739  0.21817449  0.26856583    -0.72800
O1725       O  0.55550772  0.21559534  0.22874742    -0.72900
O1726       O  0.95222240  0.14477182  0.26924245    -0.72900
O1727       O  0.97154833  0.08479493  0.27112419    -0.72900
O1728       O  0.57632237  0.15639057  0.22953704    -0.72800
O1729       O  0.58010791  0.16004569  0.26889316    -0.72800
O1730       O  0.96430978  0.07831556  0.23084994    -0.72900
Ni1731     Ni  0.50143000  0.17957066  0.24889538     1.25400
Ni1732     Ni  0.52427963  0.11658613  0.25032040     1.25400
C1733       C  0.94159789  0.09897635  0.22257719     0.89400
C1734       C  0.58232481  0.19858091  0.27645011     0.89300
C1735       C  0.58176062  0.19745283  0.22200560     0.89300
C1736       C  0.95187203  0.10859088  0.27872696     0.89500
O1737       O  0.78967498  0.35585817  0.26945474    -0.72800
O1738       O  0.83371271  0.29968319  0.23071323    -0.72800
O1739       O  0.83167862  0.29927381  0.27079014    -0.72900
O1740       O  0.79170498  0.35761374  0.22993289    -0.72900
O1741       O  0.87824109  0.43240214  0.23053551    -0.72900
O1742       O  0.91901131  0.37290935  0.27058272    -0.72800
O1743       O  0.92043236  0.37464541  0.23057238    -0.72800
O1744       O  0.87739136  0.42953333  0.27038223    -0.72900
Ni1745     Ni  0.80869435  0.32536273  0.25013592     1.25400
Ni1746     Ni  0.90193461  0.40498379  0.25046644     1.25400
C1747       C  0.82749709  0.39997174  0.27724678     0.89400
C1748       C  0.88303825  0.32925481  0.22338739     0.89300
C1749       C  0.88036589  0.32907505  0.27869874     0.89300
C1750       C  0.82884940  0.40393083  0.22304212     0.89500
C1751       C  0.78657352  0.02477817  0.44770457     0.03900
C1752       C  0.74742645  0.47196446  0.44608056     0.03900
C1753       C  0.73933656  0.45024978  0.42735577    -0.16600
C1754       C  0.77315920  0.48107156  0.41151953     0.03900
C1755       C  0.81610009  0.02918129  0.41413262     0.03900
C1756       C  0.82236453  0.05328259  0.43179261    -0.16600
H1757       H  0.85713391  0.09470153  0.43334784     0.05900
H1758       H  0.70670365  0.40858115  0.42503292     0.05900
O1759       O  0.66453891  0.45808487  0.27079640    -0.72800
O1760       O  0.70517471  0.04596767  0.22588333    -0.72800
O1761       O  0.72525571  0.06065394  0.26584287    -0.72900
O1762       O  0.64783102  0.44728210  0.23100256    -0.72900
O1763       O  0.57090496  0.44619329  0.23322916    -0.72900
O1764       O  0.64720068  0.05698206  0.26927370    -0.72800
O1765       O  0.62860915  0.04476848  0.22965342    -0.72800
O1766       O  0.58644763  0.45499246  0.27342563    -0.72900
Ni1767     Ni  0.68842519  0.00122409  0.24845581     1.25400
Ni1768     Ni  0.60524774  0.99828054  0.25172732     1.25400
C1769       C  0.62037577  0.44459067  0.28017611     0.89400
C1770       C  0.67052048  0.05596402  0.21942855     0.90700
C1771       C  0.69786287  0.07544581  0.27448428     0.89300
C1772       C  0.59876992  0.43148501  0.22485564     0.89500
C1773       C  0.76796564  0.46828959  0.04971282     0.03900
C1774       C  0.78792697  0.02341470  0.05065064     0.03900
C1775       C  0.80809342  0.04975291  0.06856645    -0.16600
C1776       C  0.80512335  0.02303267  0.08548276     0.03900
C1777       C  0.77537127  0.46658849  0.08518742     0.03900
C1778       C  0.75845862  0.44054945  0.06743595    -0.16600
H1779       H  0.73847434  0.39817171  0.06743347     0.05900
H1780       H  0.82962692  0.09239329  0.06930386     0.05900
C1781       C  0.74346754  0.20902977  0.44646977     0.03900
C1782       C  0.71065514  0.23072119  0.44680838     0.03900
C1783       C  0.68829905  0.23420756  0.42902844    -0.16600
C1784       C  0.69319124  0.21435623  0.41178244     0.03900
C1785       C  0.71732526  0.18579979  0.41184387     0.03900
C1786       C  0.74307944  0.18455636  0.42905659    -0.16600
H1787       H  0.76431641  0.16514225  0.42858580     0.05900
H1788       H  0.66646815  0.25313022  0.42833621     0.05900
C1789       C  0.75198905  0.23428640  0.05237534     0.03900
C1790       C  0.74317279  0.27617352  0.05383573     0.03900
C1791       C  0.73273562  0.28650051  0.07256911    -0.16600
C1792       C  0.72233047  0.25337548  0.08857603     0.03900
C1793       C  0.71472964  0.20449436  0.08544673     0.03900
C1794       C  0.73214626  0.19686935  0.06780963    -0.16600
H1795       H  0.73215766  0.16195162  0.06648500     0.05900
H1796       H  0.73377644  0.32160565  0.07482657     0.05900
C1797       C  0.53169535  0.30516180  0.45239965     0.03900
C1798       C  0.96962061  0.27964609  0.45172205     0.03900
C1799       C  0.94394993  0.27740393  0.43378467    -0.16600
C1800       C  0.97445875  0.29739034  0.41652187     0.03900
C1801       C  0.53504056  0.32642131  0.41774220     0.03900
C1802       C  0.56134450  0.32711905  0.43486575    -0.16600
H1803       H  0.60675027  0.34821986  0.43470865     0.05900
H1804       H  0.89912226  0.25954801  0.43316593     0.05900
C1805       C  0.95744656  0.26655845  0.05216345     0.03900
C1806       C  0.51865106  0.29055705  0.05196601     0.03900
C1807       C  0.54725623  0.30659985  0.07022664    -0.16600
C1808       C  0.51932588  0.30098903  0.08756487     0.03900
C1809       C  0.95780615  0.27572689  0.08743976     0.03900
C1810       C  0.92951932  0.26015818  0.06965514    -0.16600
H1811       H  0.88515287  0.24425726  0.06938664     0.05900
H1812       H  0.59222717  0.32559163  0.07101184     0.05900
C1813       C  0.57872780  0.41137061  0.37297002     0.14300
C1814       C  0.60462515  0.39275813  0.36205679     0.01300
C1815       C  0.61746714  0.35997554  0.37144710     0.16200
C1816       C  0.59950172  0.34176503  0.39050421     0.25700
C1817       C  0.56942678  0.35695805  0.40051358    -0.40700
C1818       C  0.56370838  0.39540351  0.39221660     0.32700
C1819       C  0.61474645  0.40550849  0.34084804     0.01300
F1820       F  0.64552686  0.34397520  0.36201033    -0.13000
F1821       F  0.53838623  0.41360953  0.40222145    -0.13500
C1822       C  0.63421495  0.45670414  0.33426454     0.16200
C1823       C  0.62983631  0.46609510  0.31475238     0.25700
C1824       C  0.61514316  0.42781790  0.30072615    -0.40600
C1825       C  0.59929001  0.37731460  0.30681536     0.32600
C1826       C  0.59681204  0.36547543  0.32684356     0.14300
F1827       F  0.65550419  0.49750955  0.34684537    -0.13000
F1828       F  0.58326350  0.33901155  0.29356723    -0.13500
F1829       F  0.63772004  0.51233516  0.30963705    -0.15800
F1830       F  0.57349483  0.31449569  0.33250025    -0.14300
F1831       F  0.56320087  0.44138527  0.36468526    -0.14300
F1832       F  0.10175632  0.29711539  0.39754767    -0.15800
C1833       C  0.54189795  0.29945556  0.14104588     0.14300
C1834       C  0.56477848  0.35244528  0.14616908     0.01300
C1835       C  0.58483811  0.39046398  0.13087634     0.16200
C1836       C  0.57627993  0.37487224  0.11130466     0.25700
C1837       C  0.54998311  0.32140108  0.10651270    -0.40700
C1838       C  0.53728034  0.28491961  0.12157130     0.32700
C1839       C  0.56675866  0.36779038  0.16710689     0.01300
F1840       F  0.61124440  0.44269079  0.13475550    -0.13000
F1841       F  0.51377772  0.23331296  0.11735643    -0.13500
C1842       C  0.58317532  0.34799585  0.18231118     0.16200
C1843       C  0.59012494  0.36587007  0.20141591     0.25700
C1844       C  0.57839658  0.40241065  0.20620586    -0.40600
C1845       C  0.55748025  0.41914200  0.19152922     0.32600
C1846       C  0.55243641  0.40267648  0.17225574     0.14300
F1847       F  0.59473865  0.31257611  0.17873586    -0.13000
F1848       F  0.54583293  0.45474463  0.19549577    -0.13500
F1849       F  0.60971844  0.34829097  0.21521176    -0.15800
F1850       F  0.53398624  0.42166578  0.15868320    -0.14300
F1851       F  0.51951057  0.26017511  0.15460475    -0.14300
F1852       F  0.58944352  0.41129646  0.09706015    -0.15800
C1853       C  0.70179499  0.14427205  0.31983221     0.14300
C1854       C  0.72822796  0.12975236  0.33301262     0.01300
C1855       C  0.75672430  0.10951116  0.32541062     0.16200
C1856       C  0.75452225  0.09973721  0.30540804     0.25700
C1857       C  0.72094237  0.10721273  0.29268419    -0.40700
C1858       C  0.69725677  0.13239683  0.30001130     0.32700
C1859       C  0.72465327  0.13515681  0.35451641     0.01300
F1860       F  0.78240580  0.09456267  0.33751443    -0.13000
F1861       F  0.66711653  0.14301965  0.28817001    -0.13500
C1862       C  0.67232548  0.11417404  0.36335470     0.16200
C1863       C  0.66947742  0.12670416  0.38261853     0.25700
C1864       C  0.71892834  0.16070537  0.39353573    -0.40600
C1865       C  0.77057081  0.17662440  0.38542666     0.32600
C1866       C  0.77333787  0.16414520  0.36614454     0.14300
F1867       F  0.62386802  0.08252365  0.35314010    -0.13000
F1868       F  0.81894929  0.20799825  0.39562421    -0.13500
F1869       F  0.61840068  0.10758638  0.39033829    -0.15800
F1870       F  0.82430439  0.18491648  0.35823610    -0.14300
F1871       F  0.67942293  0.16930813  0.32631433    -0.14300
F1872       F  0.77892114  0.07616362  0.29909754    -0.15800
C1873       C  0.68533158  0.06321031  0.16469417     0.14300
C1874       C  0.66794815  0.09577376  0.15906891     0.01300
C1875       C  0.65040543  0.11453394  0.17366230     0.16200
C1876       C  0.65305874  0.10337372  0.19335256     0.25700
C1877       C  0.67407754  0.07383723  0.19896584    -0.40700
C1878       C  0.68907020  0.05299035  0.18434924     0.32700
C1879       C  0.67390977  0.11430198  0.13837941     0.01300
F1880       F  0.63137468  0.14434617  0.16896054    -0.13000
F1881       F  0.70398963  0.01979152  0.18903606    -0.13500
C1882       C  0.63167528  0.11530396  0.12853698     0.16200
C1883       C  0.64303236  0.14145291  0.11042405     0.25700
C1884       C  0.69555169  0.16428942  0.10142235    -0.40600
C1885       C  0.73435929  0.15679473  0.11003134     0.32600
C1886       C  0.72504273  0.13523567  0.12873750     0.14300
F1887       F  0.58033684  0.09274172  0.13667589    -0.13000
F1888       F  0.78516769  0.17801275  0.10165862    -0.13500
F1889       F  0.60379652  0.14644111  0.10203326    -0.15800
F1890       F  0.76876470  0.14064539  0.13831065    -0.14300
F1891       F  0.69763879  0.04025412  0.15106029    -0.14300
F1892       F  0.63500962  0.12146971  0.20695163    -0.15800
C1893       C  0.93993779  0.27679039  0.36307909     0.14300
C1894       C  0.91682880  0.30530097  0.35968125     0.01300
C1895       C  0.90585108  0.32598026  0.37553115     0.16200
C1896       C  0.92060376  0.32015261  0.39449073     0.25700
C1897       C  0.94577335  0.29295812  0.39772333    -0.40700
C1898       C  0.95243583  0.26897748  0.38189343     0.32700
C1899       C  0.90646421  0.31375492  0.33927699     0.01300
F1900       F  0.88406828  0.35430324  0.37252874    -0.13000
F1901       F  0.97443944  0.24070372  0.38456640    -0.13500
C1902       C  0.85207356  0.28437968  0.33140254     0.16200
C1903       C  0.84358203  0.28576858  0.31138364     0.25700
C1904       C  0.88973914  0.31736933  0.29881046    -0.40600
C1905       C  0.94420413  0.34731312  0.30692317     0.32600
C1906       C  0.95217143  0.34585002  0.32690216     0.14300
F1907       F  0.80708054  0.25503716  0.34314650    -0.13000
F1908       F  0.98977461  0.37981061  0.29564179    -0.13500
F1909       F  0.78998216  0.25876138  0.30456759    -0.15800
F1910       F  0.00464500  0.37708918  0.33434823    -0.14300
F1911       F  0.95143414  0.25751663  0.34786914    -0.14300
F1912       F  0.91358843  0.34373159  0.40946152    -0.15800
C1913       C  0.92724937  0.32744930  0.13030838     0.14300
C1914       C  0.90842902  0.28598718  0.14417992     0.01300
C1915       C  0.89608403  0.23735020  0.13771091     0.16200
C1916       C  0.90591135  0.23150835  0.11835882     0.25700
C1917       C  0.92851898  0.27426699  0.10516937    -0.40700
C1918       C  0.93616891  0.32114702  0.11102843     0.32700
C1919       C  0.90119911  0.29375685  0.16506878     0.01300
F1920       F  0.87639333  0.19608327  0.15028072    -0.13000
F1921       F  0.46422000  0.36588588  0.09885417    -0.13500
C1922       C  0.87685771  0.32043153  0.16936263     0.16200
C1923       C  0.87432949  0.33295346  0.18830509     0.25700
C1924       C  0.89194557  0.31652756  0.20391236    -0.40600
C1925       C  0.91457161  0.28801308  0.20023681     0.32600
C1926       C  0.91966400  0.27699235  0.18089852     0.14300
F1927       F  0.85404616  0.33376174  0.15526297    -0.13000
F1928       F  0.93233335  0.27167127  0.21515526    -0.13500
F1929       F  0.85360041  0.36121769  0.19149620    -0.15800
F1930       F  0.94378516  0.25121523  0.17786652    -0.14300
F1931       F  0.94072495  0.37568910  0.13545609    -0.14300
F1932       F  0.89812662  0.18578788  0.11286775    -0.15800
C1933       C  0.76535739  0.47208690  0.35701415     0.14300
C1934       C  0.77464626  0.43276662  0.35379248     0.01300
C1935       C  0.77428958  0.40396283  0.37007604     0.16200
C1936       C  0.76930204  0.41670649  0.38891969     0.25700
C1937       C  0.76295307  0.45760849  0.39195504    -0.40700
C1938       C  0.75691890  0.48248229  0.37578811     0.32700
C1939       C  0.78745304  0.42387657  0.33382177     0.01300
F1940       F  0.78131348  0.36481449  0.36800365    -0.13000
F1941       F  0.74000961  0.01224257  0.37829421    -0.13500
C1942       C  0.82996593  0.41587305  0.33102060     0.16200
C1943       C  0.84480399  0.41176571  0.31239670     0.25700
C1944       C  0.81574041  0.41234938  0.29611261    -0.40600
C1945       C  0.77235226  0.41847180  0.29856780     0.32600
C1946       C  0.75907899  0.42526931  0.31718367     0.14300
F1947       F  0.86144913  0.41715116  0.34605574    -0.13000
F1948       F  0.74307015  0.41811991  0.28295435    -0.13500
F1949       F  0.88891582  0.40852616  0.31024291    -0.15800
F1950       F  0.71623938  0.43020949  0.31889024    -0.14300
F1951       F  0.76910141  0.50375921  0.34230141    -0.14300
F1952       F  0.77455024  0.39144960  0.40423973    -0.15800
C1953       C  0.80397571  0.41134633  0.12904089     0.14300
C1954       C  0.77884609  0.42266613  0.14358314     0.01300
C1955       C  0.74184929  0.43606986  0.13781516     0.16200
C1956       C  0.73412885  0.44235524  0.11817421     0.25700
C1957       C  0.76453151  0.43732814  0.10388884    -0.40700
C1958       C  0.79682136  0.41859980  0.10932716     0.32700
C1959       C  0.79239006  0.42269722  0.16461501     0.01300
F1960       F  0.71691616  0.44783990  0.15115402    -0.13000
F1961       F  0.82584846  0.41247730  0.09574196    -0.13500
C1962       C  0.84829663  0.45038567  0.17129646     0.16200
C1963       C  0.86040967  0.45158701  0.19109516     0.25700
C1964       C  0.81665236  0.42096136  0.20454173    -0.40600
C1965       C  0.76081643  0.39517994  0.19804148     0.32600
C1966       C  0.74913176  0.39616301  0.17832966     0.14300
F1967       F  0.89163257  0.47445781  0.15868489    -0.13000
F1968       F  0.71734513  0.36605484  0.21055592    -0.13500
F1969       F  0.91500553  0.47607398  0.19655474    -0.15800
F1970       F  0.69517349  0.36745966  0.17232067    -0.14300
F1971       F  0.83729303  0.39534042  0.13386547    -0.14300
F1972       F  0.70281856  0.46051755  0.11317373    -0.15800
C1973       C  0.88433786  0.11162484  0.36881945     0.14300
C1974       C  0.91502520  0.09232080  0.36230472     0.01300
C1975       C  0.92372390  0.06224371  0.37559939     0.16200
C1976       C  0.89433575  0.04433612  0.39323279     0.25700
C1977       C  0.85861805  0.05893706  0.39848653    -0.40700
C1978       C  0.85755060  0.09608560  0.38688854     0.32700
C1979       C  0.93103183  0.09831475  0.34119083     0.01300
F1980       F  0.95986593  0.04940955  0.37148476    -0.13000
F1981       F  0.82546123  0.11275780  0.39209224    -0.13500
C1982       C  0.95026707  0.14536401  0.33077210     0.16200
C1983       C  0.95197710  0.14687803  0.31045333     0.25700
C1984       C  0.93899507  0.10229341  0.29986324    -0.40600
C1985       C  0.92639894  0.05734107  0.31037376     0.32600
C1986       C  0.92176568  0.05521836  0.33069147     0.14300
F1987       F  0.97101868  0.19102549  0.34034604    -0.13000
F1988       F  0.92045781  0.01616456  0.30102925    -0.13500
F1989       F  0.97067928  0.19366025  0.30131433    -0.15800
F1990       F  0.90966403  0.01132416  0.34014242    -0.14300
F1991       F  0.87635423  0.14228136  0.35708360    -0.14300
F1992       F  0.89866999  0.01071652  0.40479111    -0.15800
C1993       C  0.84918242  0.05668293  0.17779379     0.14300
C1994       C  0.89016505  0.07359500  0.16305156     0.01300
C1995       C  0.94501691  0.09192146  0.16900362     0.16200
C1996       C  0.95723106  0.09071033  0.18852243     0.25700
C1997       C  0.91907352  0.08178743  0.20289381    -0.40700
C1998       C  0.86465917  0.06451138  0.19749089     0.32700
C1999       C  0.87564845  0.07057372  0.14182353     0.01300
F2000       F  0.98815479  0.11366869  0.15626734    -0.13000
F2001       F  0.82614081  0.05318062  0.21122589    -0.13500
C2002       C  0.83514912  0.07914038  0.13548109     0.16200
C2003       C  0.81564915  0.06947358  0.11625820     0.25700
C2004       C  0.83782309  0.05288665  0.10285484    -0.40600
C2005       C  0.88337743  0.05142632  0.10825870     0.32600
C2006       C  0.90063893  0.05787430  0.12759017     0.14300
F2007       F  0.81270902  0.09490024  0.14807967    -0.13000
F2008       F  0.90353956  0.53139239  0.09580783    -0.13500
F2009       F  0.77213654  0.07207259  0.11111399    -0.15800
F2010       F  0.93736179  0.54463616  0.13261107    -0.14300
F2011       F  0.79387619  0.03060579  0.17339595    -0.14300
F2012       F  0.00871875  0.10292013  0.19345445    -0.15800
C2013       C  0.64344030  0.27192050  0.32336757     0.14300
C2014       C  0.62109525  0.22898071  0.33649483     0.01300
C2015       C  0.58844007  0.17713489  0.32957453     0.16200
C2016       C  0.58046489  0.16834886  0.30977263     0.25700
C2017       C  0.60165719  0.21118996  0.29655977    -0.40700
C2018       C  0.63267901  0.26312033  0.30345641     0.32700
C2019       C  0.64071327  0.23697382  0.35668925     0.01300
F2020       F  0.56807382  0.13498208  0.34190238    -0.13000
F2021       F  0.65401618  0.30486403  0.29092022    -0.13500
C2022       C  0.60228499  0.21457492  0.37211001     0.16200
C2023       C  0.61973424  0.20946493  0.39049725     0.25700
C2024       C  0.67573794  0.22681273  0.39349972    -0.40600
C2025       C  0.71492211  0.25353272  0.37849571     0.32600
C2026       C  0.69726281  0.25765653  0.36011133     0.14300
F2027       F  0.54734915  0.19458726  0.36901498    -0.13000
F2028       F  0.76991585  0.27352589  0.38148843    -0.13500
F2029       F  0.58130546  0.18431835  0.40492666    -0.15800
F2030       F  0.73465019  0.27891762  0.34527769    -0.14300
F2031       F  0.67636256  0.32208406  0.32992346    -0.14300
F2032       F  0.55106896  0.11747089  0.30358213    -0.15800
C2033       C  0.73334460  0.25891213  0.14283799     0.14300
C2034       C  0.69403365  0.26939716  0.14785718     0.01300
C2035       C  0.67573428  0.28870225  0.13309431     0.16200
C2036       C  0.68577351  0.28558085  0.11352482     0.25700
C2037       C  0.72085051  0.27007956  0.10862986    -0.40700
C2038       C  0.75086688  0.26511087  0.12363760     0.32700
C2039       C  0.66744143  0.25496762  0.16751110     0.01300
F2040       F  0.64593494  0.30823204  0.13754872    -0.13000
F2041       F  0.79425809  0.26206081  0.11950997    -0.13500
C2042       C  0.69796155  0.26199185  0.18474080     0.16200
C2043       C  0.67059438  0.24289331  0.20265983     0.25700
C2044       C  0.61314974  0.22060774  0.20389648    -0.40600
C2045       C  0.58349395  0.21719296  0.18713395     0.32600
C2046       C  0.60920958  0.23048315  0.16903221     0.14300
F2047       F  0.75414919  0.28736786  0.18436763    -0.13000
F2048       F  0.52892314  0.19995421  0.18823898    -0.13500
F2049       F  0.70030422  0.24734551  0.21881685    -0.15800
F2050       F  0.57635586  0.21715586  0.15295890    -0.14300
F2051       F  0.75124750  0.23810988  0.15587406    -0.14300
F2052       F  0.65942990  0.29551416  0.09957492    -0.15800
C2053       C  0.84993207  0.28708194  0.82170514     0.14300
C2054       C  0.88416333  0.28935560  0.83698354     0.01300
C2055       C  0.93321266  0.29329278  0.83245131     0.16200
C2056       C  0.94827729  0.29581327  0.81319934     0.25700
C2057       C  0.91615770  0.29668159  0.79802796    -0.40700
C2058       C  0.86674948  0.29227658  0.80230205     0.32700
C2059       C  0.87106560  0.28998887  0.85766225     0.01300
F2060       F  0.96687184  0.29493854  0.84673875    -0.13000
F2061       F  0.83531985  0.29343564  0.78780482    -0.13500
C2062       C  0.81998139  0.24821759  0.86584607     0.16200
C2063       C  0.80867314  0.24898484  0.88543642     0.25700
C2064       C  0.84701306  0.29289615  0.89685564    -0.40600
C2065       C  0.89911244  0.33350734  0.88902823     0.32600
C2066       C  0.91101541  0.33219054  0.86956959     0.14300
F2067       F  0.78000749  0.20774189  0.85476546    -0.13000
F2068       F  0.93680639  0.37617347  0.89990938    -0.13500
F2069       F  0.75818420  0.20917211  0.89282802    -0.15800
F2070       F  0.96026039  0.37373834  0.86205017    -0.14300
F2071       F  0.80147844  0.28179066  0.82551493    -0.14300
F2072       F  0.99621719  0.30016632  0.80936015    -0.15800
C2073       C  0.63621339  0.36226199  0.82657445     0.14300
C2074       C  0.65921845  0.41334112  0.83301659     0.01300
C2075       C  0.67255267  0.45306063  0.81934697     0.16200
C2076       C  0.65541935  0.44021249  0.80001111     0.25700
C2077       C  0.62447153  0.38697897  0.79412364    -0.40700
C2078       C  0.61950608  0.34877649  0.80719714     0.32700
C2079       C  0.66149849  0.42230576  0.85415022     0.01300
F2080       F  0.70069438  0.50394840  0.82477420    -0.13000
F2081       F  0.59303991  0.29743305  0.80191657    -0.13500
C2082       C  0.69999787  0.42107385  0.86623827     0.16200
C2083       C  0.70068337  0.42842663  0.88625304     0.25700
C2084       C  0.66312623  0.43757936  0.89441701    -0.40600
C2085       C  0.62129305  0.43397633  0.88258075     0.32600
C2086       C  0.62047861  0.42626910  0.86258210     0.14300
F2087       F  0.73823086  0.41468876  0.85859461    -0.13000
F2088       F  0.58354651  0.44119575  0.89024253    -0.13500
F2089       F  0.73368853  0.92984735  0.89741971    -0.15800
F2090       F  0.57971032  0.42266552  0.85136939    -0.14300
F2091       F  0.62707513  0.32515447  0.83965944    -0.14300
F2092       F  0.66591835  0.47928121  0.78739656    -0.15800
C2093       C  0.60808158  0.40676618  0.67075793     0.14300
C2094       C  0.64573404  0.39389828  0.66620996     0.01300
C2095       C  0.66727138  0.37917398  0.68143963     0.16200
C2096       C  0.64750930  0.37293774  0.70042957     0.25700
C2097       C  0.60795325  0.38358043  0.70450233    -0.40700
C2098       C  0.59003613  0.40231113  0.68966098     0.32700
C2099       C  0.66277427  0.39816989  0.64565018     0.01300
F2100       F  0.70583686  0.36911941  0.67794949    -0.13000
F2101       F  0.55283560  0.41419278  0.69325792    -0.13500
C2102       C  0.71987896  0.42881717  0.64043892     0.16200
C2103       C  0.73539625  0.44460091  0.62110110     0.25700
C2104       C  0.69398862  0.42913059  0.60680272    -0.40600
C2105       C  0.63731372  0.39341418  0.61151611     0.32600
C2106       C  0.62167167  0.37821882  0.63081501     0.14300
F2107       F  0.76066046  0.44769716  0.65417857    -0.13000
F2108       F  0.59699693  0.37794936  0.59771332    -0.13500
F2109       F  0.79066668  0.47849224  0.61653061    -0.15800
F2110       F  0.56604696  0.34752083  0.63516269    -0.14300
F2111       F  0.58988473  0.42551314  0.65695844    -0.14300
F2112       F  0.66701872  0.35681086  0.71481910    -0.15800
C2113       C  0.89519813  0.29920580  0.62904194     0.14300
C2114       C  0.85606982  0.27410555  0.64428477     0.01300
C2115       C  0.79876877  0.24028409  0.63972160     0.16200
C2116       C  0.78034899  0.23160279  0.62042106     0.25700
C2117       C  0.81900013  0.25912131  0.60527910    -0.40700
C2118       C  0.87676674  0.29134641  0.60964211     0.32700
C2119       C  0.87391811  0.28392613  0.66503889     0.01300
F2120       F  0.76058536  0.21957424  0.65417954    -0.13000
F2121       F  0.91482143  0.31873638  0.59525766    -0.13500
C2122       C  0.90448494  0.33553272  0.67243207     0.16200
C2123       C  0.92004985  0.34461375  0.69204796     0.25700
C2124       C  0.90783301  0.30240061  0.70454087    -0.40600
C2125       C  0.87532452  0.25051338  0.69729006     0.32600
C2126       C  0.85798669  0.24137919  0.67786488     0.14300
F2127       F  0.91956451  0.37741452  0.66066081    -0.13000
F2128       F  0.86113430  0.20847885  0.70889541    -0.13500
F2129       F  0.94945748  0.39526123  0.69848185    -0.15800
F2130       F  0.82707198  0.19080241  0.67152188    -0.14300
F2131       F  0.95102880  0.33258919  0.63296247    -0.14300
F2132       F  0.72429875  0.20030451  0.61654100    -0.15800
C2133       C  0.54797969  0.15824488  0.87299183     0.14300
C2134       C  0.54481393  0.18482746  0.85678950     0.01300
C2135       C  0.53731724  0.22523658  0.85998758     0.16200
C2136       C  0.53248977  0.23848853  0.87881299     0.25700
C2137       C  0.53201740  0.20969412  0.89491478    -0.40700
C2138       C  0.54169777  0.17057867  0.89190564     0.32700
C2139       C  0.55260522  0.17310215  0.83661283     0.01300
F2140       F  0.53082195  0.24961811  0.84478714    -0.13000
F2141       F  0.04227853  0.14250936  0.90780814    -0.13500
C2142       C  0.51334617  0.12459971  0.82751774     0.16200
C2143       C  0.52125447  0.11585930  0.80823291     0.25700
C2144       C  0.56920234  0.15544825  0.79764749    -0.40600
C2145       C  0.60897294  0.20343660  0.80715580     0.32600
C2146       C  0.60083874  0.21139207  0.82634102     0.14300
F2147       F  0.46800736  0.08508161  0.83739960    -0.13000
F2148       F  0.65748977  0.24226175  0.79833075    -0.13500
F2149       F  0.48281945  0.06794782  0.80025657    -0.15800
F2150       F  0.64224379  0.25547055  0.83545966    -0.14300
F2151       F  0.55510760  0.11906454  0.87043751    -0.14300
F2152       F  0.52279419  0.27609061  0.88124528    -0.15800
C2153       C  0.67248239  0.08743296  0.87338191     0.14300
C2154       C  0.70301886  0.08547810  0.85814732     0.01300
C2155       C  0.74067468  0.07241649  0.86283669     0.16200
C2156       C  0.74491159  0.05768278  0.88168919     0.25700
C2157       C  0.70937153  0.05305498  0.89625039    -0.40700
C2158       C  0.67543494  0.07105476  0.89232501     0.32700
C2159       C  0.69176849  0.09076386  0.83720336     0.01300
F2160       F  0.76942578  0.06876918  0.84869185    -0.13000
F2161       F  0.64266571  0.06958685  0.90648792    -0.13500
C2162       C  0.73619576  0.12159135  0.82389972     0.16200
C2163       C  0.72582474  0.12094741  0.80396882     0.25700
C2164       C  0.67080804  0.08881432  0.79659562    -0.40600
C2165       C  0.62625883  0.05710783  0.80974960     0.32600
C2166       C  0.63656798  0.05854188  0.82976661     0.14300
F2167       F  0.79019834  0.15250846  0.83002715    -0.13000
F2168       F  0.57212416  0.02608390  0.80339546    -0.13500
F2169       F  0.76989310  0.15225183  0.79186796    -0.15800
F2170       F  0.59249999  0.02668509  0.84178541    -0.14300
F2171       F  0.63833158  0.10322395  0.86977320    -0.14300
F2172       F  0.78230782  0.54412489  0.88581053    -0.15800
C2173       C  0.68918334  0.04953754  0.67609448     0.14300
C2174       C  0.68443611  0.07724893  0.66062777     0.01300
C2175       C  0.67079630  0.11264067  0.66491793     0.16200
C2176       C  0.66512758  0.12242412  0.68426255     0.25700
C2177       C  0.66819654  0.09359985  0.69976457    -0.40700
C2178       C  0.67996794  0.05668065  0.69546321     0.32700
C2179       C  0.69214560  0.06776127  0.64008188     0.01300
F2180       F  0.66244812  0.13740587  0.65030412    -0.13000
F2181       F  0.68321179  0.02813586  0.70996589    -0.13500
C2182       C  0.64568078  0.03023746  0.62876012     0.16200
C2183       C  0.65357075  0.01492516  0.61072843     0.25700
C2184       C  0.70811666  0.03633421  0.60379648    -0.40600
C2185       C  0.75402450  0.07852275  0.61396284     0.32600
C2186       C  0.74606669  0.09425744  0.63187848     0.14300
F2187       F  0.59269052  0.00784351  0.63530784    -0.13000
F2188       F  0.80669493  0.10315853  0.60687055    -0.13500
F2189       F  0.61104088  0.47259707  0.60023249    -0.15800
F2190       F  0.79132736  0.13448495  0.64141346    -0.14300
F2191       F  0.70121432  0.01437597  0.67227571    -0.14300
F2192       F  0.65533552  0.15942124  0.68781442    -0.15800
C2193       C  0.52739529  0.12670126  0.67096667     0.14300
C2194       C  0.56131718  0.17888618  0.66339302     0.01300
C2195       C  0.59172456  0.22077960  0.67665062     0.16200
C2196       C  0.59051800  0.21101810  0.69656278     0.25700
C2197       C  0.56086348  0.15883778  0.70381873    -0.40700
C2198       C  0.52770595  0.11679591  0.69086444     0.32700
C2199       C  0.56461118  0.18994062  0.64195472     0.01300
F2200       F  0.62582862  0.27148387  0.67035753    -0.13000
F2201       F  0.50015561  0.06566247  0.69707248    -0.13500
C2202       C  0.56244573  0.23180417  0.63482397     0.16200
C2203       C  0.56131971  0.24015569  0.61490792     0.25700
C2204       C  0.55653147  0.20403870  0.60165174    -0.40600
C2205       C  0.56290630  0.16460691  0.60831535     0.32600
C2206       C  0.56783091  0.15808797  0.62829986     0.14300
F2207       F  0.55454950  0.26084454  0.64699417    -0.13000
F2208       F  0.55874961  0.12924469  0.59569798    -0.13500
F2209       F  0.55478803  0.27801086  0.60854003    -0.15800
F2210       F  0.57236750  0.11858056  0.63417085    -0.14300
F2211       F  0.49524611  0.08466669  0.65916973    -0.14300
F2212       F  0.62232897  0.25276215  0.70857223    -0.15800
C2213       C  0.90732089  0.14263694  0.82112222     0.14300
C2214       C  0.87796912  0.10353437  0.83584878     0.01300
C2215       C  0.83961176  0.05045206  0.83009026     0.16200
C2216       C  0.83078210  0.03730238  0.81045658     0.25700
C2217       C  0.86274546  0.07596531  0.79606148    -0.40700
C2218       C  0.90140705  0.12869762  0.80152553     0.32700
C2219       C  0.88680662  0.11766127  0.85701209     0.01300
F2220       F  0.80863122  0.01123999  0.84340560    -0.13000
F2221       F  0.93314549  0.16672481  0.78789576    -0.13500
C2222       C  0.88616482  0.16014041  0.86377399     0.16200
C2223       C  0.89813062  0.17551032  0.88323145     0.25700
C2224       C  0.91190319  0.14930714  0.89633673    -0.40600
C2225       C  0.90747983  0.10398948  0.89024094     0.32600
C2226       C  0.89548437  0.08850668  0.87079496     0.14300
F2227       F  0.87496311  0.18763297  0.85152655    -0.13000
F2228       F  0.91939680  0.07728483  0.90281349    -0.13500
F2229       F  0.90130794  0.21904408  0.88888718    -0.15800
F2230       F  0.89533528  0.04653354  0.86541811    -0.14300
F2231       F  0.94259614  0.19442704  0.82553441    -0.14300
F2232       F  0.79226037  0.98599239  0.80554362    -0.15800
C2233       C  0.77986506  0.37420873  0.82191182     0.14300
C2234       C  0.82690870  0.38984144  0.83360103     0.01300
C2235       C  0.87956845  0.41456767  0.82441153     0.16200
C2236       C  0.88512635  0.42697916  0.80441891     0.25700
C2237       C  0.83770467  0.41291096  0.79303758    -0.40700
C2238       C  0.78458803  0.38311090  0.80194763     0.32700
C2239       C  0.81960794  0.37928477  0.85509736     0.01300
F2240       F  0.92578891  0.42708249  0.83468526    -0.13000
F2241       F  0.73688119  0.36608529  0.79169297    -0.13500
C2242       C  0.77296388  0.33041852  0.86232296     0.16200
C2243       C  0.76386496  0.32069031  0.88221491     0.25700
C2244       C  0.80459220  0.35661485  0.89548396    -0.40600
C2245       C  0.85042973  0.40614193  0.88867531     0.32600
C2246       C  0.85733172  0.41784963  0.86865726     0.14300
F2247       F  0.73854248  0.28979154  0.85024389    -0.13000
F2248       F  0.89064229  0.44143346  0.90128321    -0.13500
F2249       F  0.71888252  0.27278450  0.88849812    -0.15800
F2250       F  0.90200550  0.46607155  0.86260571    -0.14300
F2251       F  0.72900854  0.35297785  0.82992711    -0.14300
F2252       F  0.93719168  0.45439139  0.79644834    -0.15800
C2253       C  0.92890603  0.16408660  0.67754129     0.14300
C2254       C  0.89005893  0.13287062  0.66274009     0.01300
C2255       C  0.83882547  0.08556251  0.66808413     0.16200
C2256       C  0.82830848  0.06756868  0.68736458     0.25700
C2257       C  0.86886571  0.09650192  0.70193869    -0.40700
C2258       C  0.91868986  0.14572606  0.69693214     0.32700
C2259       C  0.90467033  0.14563504  0.64168124     0.01300
F2260       F  0.80014727  0.05488071  0.65431788    -0.13000
F2261       F  0.95865503  0.17482372  0.71063375    -0.13500
C2262       C  0.89975330  0.10705198  0.62948924     0.16200
C2263       C  0.91539338  0.11833130  0.61001388     0.25700
C2264       C  0.93695966  0.16876143  0.60216565    -0.40600
C2265       C  0.93913966  0.20681773  0.61384758     0.32600
C2266       C  0.92405126  0.19560408  0.63357095     0.14300
F2267       F  0.88250050  0.05893269  0.63667529    -0.13000
F2268       F  0.96007907  0.25600954  0.60655242    -0.13500
F2269       F  0.91253813  0.08081749  0.59900255    -0.15800
F2270       F  0.93026305  0.23399568  0.64491051    -0.14300
F2271       F  0.97853603  0.21044682  0.67312819    -0.14300
F2272       F  0.78139178  0.01843528  0.69132829    -0.15800
C2273       C  0.85386251  0.43926410  0.66485502     0.14300
C2274       C  0.81772403  0.38490881  0.66085365     0.01300
C2275       C  0.79337785  0.34865926  0.67667707     0.16200
C2276       C  0.80325834  0.36705258  0.69587109     0.25700
C2277       C  0.83886308  0.42169985  0.69952586    -0.40700
C2278       C  0.86389711  0.45732476  0.68383950     0.32700
C2279       C  0.80489311  0.36704578  0.64023434     0.01300
F2280       F  0.75941517  0.29562892  0.67362390    -0.13000
F2281       F  0.89381554  0.51025375  0.68675884    -0.13500
C2282       C  0.84832117  0.38824085  0.62638259     0.16200
C2283       C  0.83648963  0.36970269  0.60740604     0.25700
C2284       C  0.78201573  0.32736071  0.60217802    -0.40600
C2285       C  0.73786797  0.30903485  0.61521816     0.32600
C2286       C  0.74910670  0.32938808  0.63400731     0.14300
F2287       F  0.90294683  0.42441044  0.63134086    -0.13000
F2288       F  0.68476302  0.26855398  0.61026441    -0.13500
F2289       F  0.87934840  0.38935397  0.59458294    -0.15800
F2290       F  0.70548809  0.31139989  0.64616943    -0.14300
F2291       F  0.87655884  0.47556484  0.65025916    -0.14300
F2292       F  0.77705301  0.33175388  0.71077105    -0.15800
O2293       O  0.82200608  0.78091774  0.98286094    -0.79300
O2294       O  0.80005663  0.60233301  0.03715976    -0.63900
O2295       O  0.84134950  0.71427880  0.00070600    -1.10500
C2296       C  0.76511867  0.55963447  0.96400357     1.07600
O2297       O  0.81009453  0.54915100  0.01712570    -0.77200
O2298       O  0.90146759  0.63979651  0.97359692    -0.64700
Ni2299     Ni  0.86284470  0.78123659  0.00548084     1.34900
C2300       C  0.91281821  0.68229604  0.96528773     0.86400
O2301       O  0.89560899  0.70346339  0.02869062    -0.77700
O2302       O  0.90777479  0.78328206  0.02773801    -0.88000
C2303       C  0.79876755  0.55986619  0.03367080     0.85900
O2304       O  0.79925604  0.75786511  0.02161836    -0.66200
O2305       O  0.79089090  0.54805537  0.97634893    -0.85500
C2306       C  0.78542123  0.72955617  0.03695058     0.86800
C2307       C  0.92135347  0.75214495  0.03402755     1.08300
H2308       H  0.77719230  0.59546762  0.99973708     0.40100
O2309       O  0.81598014  0.62571342  0.99880812    -1.08100
O2310       O  0.88332736  0.69966107  0.96828067    -0.64800
Ni2311     Ni  0.81004903  0.66628934  0.98041658     1.26300
O2312       O  0.80114013  0.69803315  0.03994162    -0.65000
O2313       O  0.77483867  0.60664460  0.96270832    -0.77300
C2314       C  0.80630431  0.75582019  0.96673041     0.86200
O2315       O  0.80093742  0.71180959  0.96385765    -0.64500
Ni2316     Ni  0.85273918  0.59426918  0.99495945     1.27400
Ni2317     Ni  0.81760558  0.66251803  0.02035075     1.26100
H2318       H  0.87955157  0.72622684  0.99852293     0.40700
O2319       O  0.80811753  0.54369038  0.48188512    -0.79300
O2320       O  0.81337664  0.70233425  0.53817242    -0.63900
O2321       O  0.82552807  0.62216577  0.50139442    -1.10500
C2322       C  0.92891131  0.75824956  0.46885718     1.07600
O2323       O  0.80592232  0.75787925  0.51838600    -0.77200
O2324       O  0.78970136  0.74041507  0.47866784    -0.64700
Ni2325     Ni  0.85935026  0.58737374  0.50277597     1.34900
C2326       C  0.78216498  0.71491229  0.46324931     0.86400
O2327       O  0.79197581  0.60200483  0.53847992    -0.77700
O2328       O  0.80454101  0.54387586  0.52363333    -0.88000
C2329       C  0.79946455  0.73462911  0.53502009     0.85900
O2330       O  0.91544788  0.63166180  0.52218976    -0.66200
O2331       O  0.90801146  0.78377115  0.47476821    -0.85500
C2332       C  0.92771515  0.67220337  0.53158302     0.86800
C2333       C  0.78340094  0.55614879  0.53718879     1.08300
H2334       H  0.88856380  0.72698272  0.50301244     0.40100
O2335       O  0.84913770  0.71041182  0.50065618    -1.08100
O2336       O  0.81110888  0.69639618  0.46050747    -0.64800
Ni2337     Ni  0.82695751  0.66171340  0.48042947     1.26300
O2338       O  0.89754942  0.69014299  0.53071775    -0.65000
O2339       O  0.90587270  0.70843423  0.47297938    -0.77300
C2340       C  0.80045187  0.55999969  0.46554337     0.86200
O2341       O  0.80965981  0.60614491  0.46272019    -0.64500
Ni2342     Ni  0.85462093  0.77103855  0.49606828     1.27400
Ni2343     Ni  0.82205884  0.66037520  0.52056638     1.26100
H2344       H  0.78620472  0.59289824  0.50083830     0.40700
O2345       O  0.90800458  0.57135458  0.72774633    -0.72800
O2346       O  0.88379646  0.97089852  0.76660968    -0.72800
O2347       O  0.88518047  0.97779339  0.72633797    -0.72900
O2348       O  0.90709111  0.56606828  0.76778818    -0.72900
O2349       O  0.81396673  0.52429821  0.76750956    -0.72900
O2350       O  0.79271141  0.94003175  0.72612862    -0.72800
O2351       O  0.79181362  0.93376451  0.76572387    -0.72800
O2352       O  0.81495934  0.52980022  0.72739246    -0.72900
Ni2353     Ni  0.89809450  0.02364944  0.74740262     1.25400
Ni2354     Ni  0.79926532  0.98352029  0.74685771     1.25400
C2355       C  0.86366818  0.56435053  0.72025328     0.89400
C2356       C  0.83437788  0.93794878  0.77356505     0.89300
C2357       C  0.83625153  0.94659201  0.71869068     0.89300
C2358       C  0.86214984  0.55628097  0.77546784     0.89500
O2359       O  0.59938160  0.55364758  0.72840257    -0.72800
O2360       O  0.54378164  0.59191412  0.77081939    -0.72800
O2361       O  0.54141791  0.59594098  0.73044859    -0.72900
O2362       O  0.60123102  0.54993656  0.76909101    -0.72900
O2363       O  0.68190274  0.63049917  0.76854202    -0.72900
O2364       O  0.62133385  0.67702019  0.73107208    -0.72800
O2365       O  0.62450709  0.67225903  0.77085505    -0.72800
O2366       O  0.67887194  0.63526652  0.72830509    -0.72900
Ni2367     Ni  0.56854346  0.56982433  0.74963771     1.25400
Ni2368     Ni  0.65442418  0.65643444  0.74969670     1.25400
C2369       C  0.64641427  0.58971901  0.72043115     0.89400
C2370       C  0.57712222  0.63737897  0.77877119     0.89300
C2371       C  0.57347979  0.64305381  0.72334657     0.89300
C2372       C  0.64918081  0.58487728  0.77664994     0.89500
O2373       O  0.56286155  0.89899563  0.77090545    -0.72800
O2374       O  0.95451887  0.85504875  0.73262107    -0.72800
O2375       O  0.96060767  0.85449387  0.77232982    -0.72900
O2376       O  0.55805755  0.90040112  0.73145475    -0.72900
O2377       O  0.55119518  0.82459000  0.73087578    -0.72900
O2378       O  0.94964025  0.77668808  0.77186269    -0.72800
O2379       O  0.94285963  0.77716494  0.73194550    -0.72800
O2380       O  0.55519779  0.82292656  0.77045445    -0.72900
Ni2381     Ni  0.01352800  0.88243320  0.75155085     1.25400
Ni2382     Ni  0.00132653  0.79901815  0.75089721     1.25400
C2383       C  0.57681157  0.86902955  0.77752129     0.89400
C2384       C  0.93212135  0.80934910  0.72506986     0.89300
C2385       C  0.94088371  0.80857586  0.77965993     0.89300
C2386       C  0.56996585  0.87059105  0.72381176     0.89500
C2387       C  0.96889825  0.69040049  0.54794055     0.03900
C2388       C  0.52696007  0.70698037  0.54835097     0.03900
C2389       C  0.55425383  0.71055257  0.56601994    -0.16600
C2390       C  0.52771718  0.69994218  0.58394074     0.03900
C2391       C  0.96904124  0.68253045  0.58344547     0.03900
C2392       C  0.94243259  0.68009003  0.56614231    -0.16600
H2393       H  0.89878609  0.66648229  0.56688288     0.05900
H2394       H  0.59759526  0.72315536  0.56594247     0.05900
C2395       C  0.74954774  0.51770346  0.55331789     0.03900
C2396       C  0.71885760  0.96084517  0.55314338     0.03900
C2397       C  0.69908276  0.93344256  0.57117614    -0.16600
C2398       C  0.69967199  0.95871000  0.58796716     0.03900
C2399       C  0.72158450  0.50978780  0.58757564     0.03900
C2400       C  0.74451927  0.53968416  0.57049222    -0.16600
H2401       H  0.75878710  0.58075811  0.57082443     0.05900
H2402       H  0.68090975  0.89138203  0.57219208     0.05900
C2403       C  0.80035813  0.78173544  0.94934485     0.03900
C2404       C  0.78130798  0.81554468  0.94896865     0.03900
C2405       C  0.77946826  0.83722178  0.93082145    -0.16600
C2406       C  0.79699734  0.82749975  0.91366218     0.03900
C2407       C  0.81788676  0.79635679  0.91446050     0.03900
C2408       C  0.81874515  0.77355965  0.93188775    -0.16600
H2409       H  0.83550305  0.75001448  0.93175971     0.05900
H2410       H  0.76404786  0.86185075  0.92995961     0.05900
C2411       C  0.74832758  0.77087677  0.55240348     0.03900
C2412       C  0.78010554  0.74839149  0.55252939     0.03900
C2413       C  0.79888669  0.74160315  0.57083253    -0.16600
C2414       C  0.79380466  0.76228213  0.58787717     0.03900
C2415       C  0.77398118  0.79419688  0.58657322     0.03900
C2416       C  0.74946755  0.79637667  0.56941949    -0.16600
H2417       H  0.73097055  0.81836781  0.56957261     0.05900
H2418       H  0.81955312  0.72163963  0.57195261     0.05900
C2419       C  0.69062449  0.96354569  0.94885088     0.03900
C2420       C  0.72601050  0.52018110  0.94866689     0.03900
C2421       C  0.72601210  0.54571335  0.93129032    -0.16600
C2422       C  0.70168274  0.51877326  0.91413403     0.03900
C2423       C  0.67405652  0.96650511  0.91371584     0.03900
C2424       C  0.66764290  0.93820441  0.93085149    -0.16600
H2425       H  0.64416706  0.89533131  0.93006493     0.05900
H2426       H  0.74850124  0.58847561  0.93037915     0.05900
C2427       C  0.50904543  0.73936457  0.94730931     0.03900
C2428       C  0.95012125  0.70290883  0.94771152     0.03900
C2429       C  0.91942909  0.67689021  0.93058062    -0.16600
C2430       C  0.94576193  0.67975382  0.91333182     0.03900
C2431       C  0.50396951  0.70776322  0.91382097     0.03900
C2432       C  0.53473236  0.74124380  0.92946595    -0.16600
H2433       H  0.57965822  0.76941305  0.92746466     0.05900
H2434       H  0.87377487  0.65164010  0.93088500     0.05900
O2435       O  0.68499839  0.72416857  0.48172804    -0.79300
O2436       O  0.69005100  0.88002931  0.53773768    -0.63900
O2437       O  0.64621527  0.77553998  0.49920057    -1.10500
C2438       C  0.71160545  0.93041649  0.46237028     1.07600
O2439       O  0.69261271  0.94352563  0.51913168    -0.77200
O2440       O  0.58223496  0.85691623  0.47888288    -0.64700
Ni2441     Ni  0.63717065  0.71303299  0.50382540     1.34900
C2442       C  0.56813853  0.81622383  0.46912999     0.86400
O2443       O  0.59103217  0.77921380  0.52717812    -0.77700
O2444       O  0.58518489  0.70205127  0.52527725    -0.88000
C2445       C  0.70123545  0.92702731  0.53534348     0.85900
O2446       O  0.70179168  0.74122986  0.52104238    -0.66200
O2447       O  0.69318719  0.94351049  0.47667114    -0.85500
C2448       C  0.71038756  0.76710511  0.53641163     0.86800
C2449       C  0.56655529  0.72918944  0.53144289     1.08300
H2450       H  0.71203897  0.89361345  0.49895369     0.40100
O2451       O  0.67249756  0.86483944  0.49858799    -1.08100
O2452       O  0.59711329  0.79687719  0.46942105    -0.64800
Ni2453     Ni  0.67327019  0.82535256  0.47904949     1.26300
O2454       O  0.68365801  0.78778742  0.53913721    -0.65000
O2455       O  0.70276547  0.88423742  0.46083476    -0.77300
C2456       C  0.69180160  0.74663383  0.46496344     0.86200
O2457       O  0.68045710  0.78109801  0.46150766    -0.64500
Ni2458     Ni  0.63978335  0.90052892  0.49809983     1.27400
Ni2459     Ni  0.66999935  0.82426936  0.51951078     1.26100
H2460       H  0.60695107  0.76012605  0.49705439     0.40700
O2461       O  0.53624095  0.81128989  0.01785042    -0.79300
O2462       O  0.71491513  0.82665719  0.96239204    -0.63900
O2463       O  0.61972872  0.82751904  0.99811915    -1.10500
C2464       C  0.75249394  0.93366700  0.03262316     1.07600
O2465       O  0.78626988  0.84185029  0.98229406    -0.77200
O2466       O  0.76737105  0.82157883  0.02194485    -0.64700
Ni2467     Ni  0.57917508  0.85552240  0.99499919     1.34900
C2468       C  0.73851574  0.80836880  0.03739927     0.86400
O2469       O  0.60187988  0.79447001  0.96095240    -0.77700
O2470       O  0.53369823  0.79722560  0.97574805    -0.88000
C2471       C  0.75915712  0.82771845  0.96590093     0.85900
O2472       O  0.62348002  0.90642225  0.97374662    -0.66200
O2473       O  0.78813434  0.92377957  0.02672617    -0.85500
C2474       C  0.67064397  0.92380653  0.96564170     0.86800
C2475       C  0.54983458  0.77883652  0.96257191     1.08300
H2476       H  0.72710760  0.89463564  0.99764811     0.40100
O2477       O  0.71623439  0.85900464  0.99978420    -1.08100
O2478       O  0.70510465  0.82272099  0.03981841    -0.64800
Ni2479     Ni  0.66280933  0.83244515  0.01965436     1.26300
O2480       O  0.69390707  0.89958288  0.96808614    -0.65000
O2481       O  0.70035770  0.90562065  0.02730157    -0.77300
C2482       C  0.55270302  0.80324339  0.03438382     0.86200
O2483       O  0.60085786  0.81018438  0.03709280    -0.64500
Ni2484     Ni  0.78760903  0.88097830  0.00484643     1.27400
Ni2485     Ni  0.66480158  0.82920385  0.97922959     1.26100
H2486       H  0.59050880  0.78989176  0.99890533     0.40700
O2487       O  0.94814781  0.64429243  0.22929214    -0.72800
O2488       O  0.56225960  0.72234380  0.26863114    -0.72800
O2489       O  0.55994746  0.72038667  0.22866661    -0.72900
O2490       O  0.95067530  0.64929709  0.26948726    -0.72900
O2491       O  0.96914800  0.58876585  0.27183831    -0.72900
O2492       O  0.57802058  0.65925243  0.22916858    -0.72800
O2493       O  0.58278752  0.66299789  0.26848415    -0.72800
O2494       O  0.96364788  0.58148820  0.23156962    -0.72900
Ni2495     Ni  0.50564648  0.68504199  0.24888166     1.25400
Ni2496     Ni  0.52613750  0.62040211  0.25003418     1.25400
C2497       C  0.94142384  0.60215437  0.22293242     0.89400
C2498       C  0.58547002  0.70136192  0.27641075     0.89300
C2499       C  0.58485823  0.70102097  0.22176364     0.89300
C2500       C  0.94984159  0.61315687  0.27920754     0.89500
O2501       O  0.78688267  0.85093298  0.26940738    -0.72800
O2502       O  0.83287845  0.79661006  0.23043971    -0.72800
O2503       O  0.82821767  0.79372747  0.27060927    -0.72900
O2504       O  0.79102024  0.85494479  0.22988747    -0.72900
O2505       O  0.87772027  0.92932320  0.23105213    -0.72900
O2506       O  0.91559842  0.86730346  0.27112815    -0.72800
O2507       O  0.91973418  0.87130115  0.23115542    -0.72800
O2508       O  0.87460240  0.92448199  0.27081942    -0.72900
Ni2509     Ni  0.80673588  0.82127698  0.24995714     1.25400
Ni2510     Ni  0.90005566  0.90065550  0.25101209     1.25400
C2511       C  0.82446310  0.89479944  0.27743430     0.89400
C2512       C  0.88275602  0.82647363  0.22352368     0.89300
C2513       C  0.87640789  0.82308735  0.27889174     0.89300
C2514       C  0.82851420  0.90161158  0.22337347     0.89500
C2515       C  0.78800702  0.52814307  0.44794589     0.03900
C2516       C  0.74433696  0.96888325  0.44595785     0.03900
C2517       C  0.73533219  0.94654280  0.42731556    -0.16600
C2518       C  0.76947977  0.97637082  0.41142616     0.03900
C2519       C  0.81872741  0.53424078  0.41447251     0.03900
C2520       C  0.82367331  0.55762653  0.43214789    -0.16600
H2521       H  0.85763382  0.59928215  0.43383638     0.05900
H2522       H  0.70182846  0.90506012  0.42510709     0.05900
O2523       O  0.66503581  0.95552637  0.27107121    -0.72800
O2524       O  0.70749278  0.55169265  0.22657410    -0.72800
O2525       O  0.72559441  0.56350835  0.26659455    -0.72900
O2526       O  0.64680324  0.94189845  0.23139171    -0.72900
O2527       O  0.56967266  0.94048300  0.23365503    -0.72900
O2528       O  0.64786605  0.56050820  0.26980370    -0.72800
O2529       O  0.63097248  0.55074054  0.23011669    -0.72800
O2530       O  0.58650567  0.95167490  0.27367074    -0.72900
Ni2531     Ni  0.68917478  0.50531786  0.24864763     1.25400
Ni2532     Ni  0.60626947  0.50290638  0.25180388     1.25400
C2533       C  0.62077989  0.94180362  0.28046456     0.89400
C2534       C  0.67331918  0.56220126  0.22009767     0.90700
C2535       C  0.69816257  0.57824151  0.27524911     0.89300
C2536       C  0.59754707  0.92568638  0.22535630     0.89500
C2537       C  0.76757341  0.96811611  0.05003230     0.03900
C2538       C  0.78889228  0.52378874  0.05045522     0.03900
C2539       C  0.80863501  0.54951499  0.06852299    -0.16600
C2540       C  0.80495894  0.52212880  0.08539566     0.03900
C2541       C  0.77614085  0.96756916  0.08550294     0.03900
C2542       C  0.75885152  0.94094503  0.06784461    -0.16600
H2543       H  0.73899861  0.89862275  0.06797278     0.05900
H2544       H  0.83044756  0.59216047  0.06940256     0.05900
C2545       C  0.74165893  0.70804604  0.44747992     0.03900
C2546       C  0.70698390  0.72774599  0.44774833     0.03900
C2547       C  0.68125376  0.72743657  0.43017954    -0.16600
C2548       C  0.68569450  0.70660169  0.41312382     0.03900
C2549       C  0.71234499  0.68037184  0.41329429     0.03900
C2550       C  0.74066476  0.68228790  0.43033163    -0.16600
H2551       H  0.76356541  0.66449180  0.42987890     0.05900
H2552       H  0.65762201  0.74458907  0.42946439     0.05900
C2553       C  0.75326353  0.73584983  0.05242867     0.03900
C2554       C  0.74462288  0.77789456  0.05375834     0.03900
C2555       C  0.73651418  0.78999164  0.07253599    -0.16600
C2556       C  0.72722555  0.75791704  0.08877106     0.03900
C2557       C  0.71864971  0.70854223  0.08587462     0.03900
C2558       C  0.73466216  0.69955438  0.06818916    -0.16600
H2559       H  0.73419411  0.66434732  0.06700755     0.05900
H2560       H  0.73808818  0.82540641  0.07460267     0.05900
C2561       C  0.52805785  0.80152443  0.45252692     0.03900
C2562       C  0.96979358  0.78227831  0.45234024     0.03900
C2563       C  0.94319690  0.77910614  0.43450802    -0.16600
C2564       C  0.97296112  0.79928573  0.41711706     0.03900
C2565       C  0.53076396  0.82105491  0.41774108     0.03900
C2566       C  0.55732495  0.82239774  0.43490593    -0.16600
H2567       H  0.60269603  0.84328813  0.43469486     0.05900
H2568       H  0.89815102  0.76021817  0.43406180     0.05900
C2569       C  0.95831464  0.76931416  0.05141654     0.03900
C2570       C  0.51668650  0.78914855  0.05212417     0.03900
C2571       C  0.54464126  0.80334677  0.07051314    -0.16600
C2572       C  0.51678446  0.79869570  0.08775778     0.03900
C2573       C  0.95978886  0.78024538  0.08662165     0.03900
C2574       C  0.93094564  0.76395411  0.06893550    -0.16600
H2575       H  0.88659319  0.74809306  0.06877232     0.05900
H2576       H  0.58917948  0.82041078  0.07147619     0.05900
C2577       C  0.57671309  0.90688185  0.37321472     0.14300
C2578       C  0.60085595  0.88678932  0.36215717     0.01300
C2579       C  0.61167893  0.85236431  0.37138049     0.16200
C2580       C  0.59337314  0.83408222  0.39037275     0.25700
C2581       C  0.56512980  0.85095409  0.40051776    -0.40700
C2582       C  0.56114667  0.89060489  0.39239804     0.32700
C2583       C  0.61146967  0.89999888  0.34100368     0.01300
F2584       F  0.63831210  0.83502849  0.36190691    -0.13000
F2585       F  0.53697028  0.90979434  0.40250276    -0.13500
C2586       C  0.63390786  0.95208145  0.33466598     0.16200
C2587       C  0.63150633  0.96287146  0.31515227     0.25700
C2588       C  0.61514477  0.92455788  0.30096626    -0.40600
C2589       C  0.59566546  0.87287471  0.30684938     0.32600
C2590       C  0.59191747  0.86011319  0.32682154     0.14300
F2591       F  0.65651076  0.99257680  0.34745701    -0.13000
F2592       F  0.57764999  0.83453134  0.29343205    -0.13500
F2593       F  0.64264522  0.01050848  0.31019586    -0.15800
F2594       F  0.56663366  0.80864556  0.33223324    -0.14300
F2595       F  0.56363252  0.93897451  0.36515328    -0.14300
F2596       F  0.10344373  0.80378013  0.39828011    -0.15800
C2597       C  0.53845592  0.79400664  0.14130483     0.14300
C2598       C  0.56296768  0.84724328  0.14662358     0.01300
C2599       C  0.58428845  0.88574443  0.13150684     0.16200
C2600       C  0.57533125  0.87075110  0.11189112     0.25700
C2601       C  0.54694628  0.81721521  0.10685110    -0.40700
C2602       C  0.53252474  0.77974096  0.12172472     0.32700
C2603       C  0.56528745  0.86262488  0.16755995     0.01300
F2604       F  0.61233768  0.93800895  0.13563421    -0.13000
F2605       F  0.50658800  0.72787333  0.11725781    -0.13500
C2606       C  0.58115321  0.84230566  0.18268575     0.16200
C2607       C  0.58772160  0.85948676  0.20188711     0.25700
C2608       C  0.57720678  0.89685361  0.20670014    -0.40600
C2609       C  0.55805553  0.91514246  0.19197630     0.32600
C2610       C  0.55240824  0.89850944  0.17272416     0.14300
F2611       F  0.59368029  0.80790275  0.17877028    -0.13000
F2612       F  0.54905365  0.95260027  0.19587300    -0.13500
F2613       F  0.60616021  0.84080042  0.21568183    -0.15800
F2614       F  0.53506681  0.91852009  0.15916545    -0.14300
F2615       F  0.51613946  0.75449285  0.15479107    -0.14300
F2616       F  0.58996529  0.90799588  0.09783887    -0.15800
C2617       C  0.69969659  0.64365878  0.32118390     0.14300
C2618       C  0.72582735  0.62857581  0.33421614     0.01300
C2619       C  0.75545608  0.60972715  0.32644467     0.16200
C2620       C  0.75376719  0.60086344  0.30637966     0.25700
C2621       C  0.72052655  0.60890650  0.29370523    -0.40700
C2622       C  0.69634052  0.63343109  0.30123528     0.32700
C2623       C  0.72173626  0.63285266  0.35574762     0.01300
F2624       F  0.78254632  0.59604608  0.33842675    -0.13000
F2625       F  0.66711214  0.64519822  0.28941992    -0.13500
C2626       C  0.66911832  0.60945801  0.36472997     0.16200
C2627       C  0.66577894  0.62028127  0.38421120     0.25700
C2628       C  0.71498060  0.65578758  0.39502627    -0.40600
C2629       C  0.76712285  0.67444564  0.38666121     0.32600
C2630       C  0.77032638  0.66301398  0.36729057     0.14300
F2631       F  0.62088567  0.57716064  0.35447886    -0.13000
F2632       F  0.81533817  0.70740196  0.39672431    -0.13500
F2633       F  0.61440113  0.59812303  0.39225426    -0.15800
F2634       F  0.82139299  0.68571552  0.35921236    -0.14300
F2635       F  0.67730272  0.66838059  0.32791719    -0.14300
F2636       F  0.77901953  0.57829898  0.29986130    -0.15800
C2637       C  0.68643736  0.56744767  0.16546879     0.14300
C2638       C  0.67080259  0.60134289  0.15981903     0.01300
C2639       C  0.65543609  0.62197256  0.17441968     0.16200
C2640       C  0.65869284  0.61151109  0.19411930     0.25700
C2641       C  0.67757412  0.58027424  0.19970183    -0.40700
C2642       C  0.69042512  0.55758032  0.18512369     0.32700
C2643       C  0.67658169  0.61938273  0.13908410     0.01300
F2644       F  0.63765012  0.65267141  0.16969303    -0.13000
F2645       F  0.70349413  0.52302118  0.18986747    -0.13500
C2646       C  0.63543909  0.62252198  0.12947894     0.16200
C2647       C  0.64715267  0.64840350  0.11131654     0.25700
C2648       C  0.69875894  0.66875620  0.10200898    -0.40600
C2649       C  0.73629454  0.65936499  0.11044672     0.32600
C2650       C  0.72678648  0.63800874  0.12918493     0.14300
F2651       F  0.58493903  0.60242164  0.13789680    -0.13000
F2652       F  0.78627431  0.67837795  0.10182562    -0.13500
F2653       F  0.60944246  0.65597794  0.10324107    -0.15800
F2654       F  0.76970384  0.64140564  0.13853443    -0.14300
F2655       F  0.69678229  0.54286540  0.15188469    -0.14300
F2656       F  0.64330143  0.63185836  0.20776304    -0.15800
C2657       C  0.93711472  0.77558201  0.36386736     0.14300
C2658       C  0.91120939  0.80147908  0.36029377     0.01300
C2659       C  0.89869439  0.82115264  0.37607467     0.16200
C2660       C  0.91495973  0.81720532  0.39505768     0.25700
C2661       C  0.94306905  0.79278307  0.39838497    -0.40700
C2662       C  0.95097875  0.76939430  0.38267831     0.32700
C2663       C  0.90076275  0.80905483  0.33972574     0.01300
F2664       F  0.87423509  0.84702853  0.37297710    -0.13000
F2665       F  0.97569071  0.74355705  0.38543043    -0.13500
C2666       C  0.84635789  0.78065066  0.33182111     0.16200
C2667       C  0.83816125  0.78122617  0.31170166     0.25700
C2668       C  0.88461699  0.81070098  0.29906673    -0.40600
C2669       C  0.93902262  0.83904401  0.30716731     0.32600
C2670       C  0.94667321  0.83891799  0.32721966     0.14300
F2671       F  0.80118329  0.75303883  0.34359220    -0.13000
F2672       F  0.98496566  0.86879505  0.29574132    -0.13500
F2673       F  0.78478614  0.75592384  0.30480764    -0.15800
F2674       F  0.99923353  0.86910579  0.33464646    -0.14300
F2675       F  0.95035118  0.75764748  0.34874177    -0.14300
F2676       F  0.90623728  0.83976317  0.40995109    -0.15800
C2677       C  0.93281028  0.83223574  0.13028245     0.14300
C2678       C  0.91249735  0.78973236  0.14380302     0.01300
C2679       C  0.89807183  0.74078597  0.13680990     0.16200
C2680       C  0.90697216  0.73538969  0.11729195     0.25700
C2681       C  0.93107268  0.77902157  0.10446045    -0.40700
C2682       C  0.94114438  0.82652239  0.11086235     0.32700
C2683       C  0.90506902  0.79648303  0.16481097     0.01300
F2684       F  0.87716230  0.69864272  0.14901094    -0.13000
F2685       F  0.46721793  0.86987698  0.09868746    -0.13500
C2686       C  0.88233782  0.82441504  0.16939308     0.16200
C2687       C  0.87877459  0.83520675  0.18847875     0.25700
C2688       C  0.89308747  0.81541242  0.20394147    -0.40600
C2689       C  0.91419720  0.78572375  0.19996663     0.32600
C2690       C  0.92088264  0.77680039  0.18049325     0.14300
F2691       F  0.86158019  0.84027598  0.15544027    -0.13000
F2692       F  0.92882757  0.76609848  0.21472630    -0.13500
F2693       F  0.86009333  0.86501144  0.19195259    -0.15800
F2694       F  0.94354625  0.74981309  0.17722642    -0.14300
F2695       F  0.94802854  0.88074553  0.13586582    -0.14300
F2696       F  0.89677310  0.68900691  0.11128561    -0.15800
C2697       C  0.76143659  0.96643829  0.35715816     0.14300
C2698       C  0.77198629  0.92790502  0.35403196     0.01300
C2699       C  0.77237246  0.89968133  0.37040984     0.16200
C2700       C  0.76694147  0.91237002  0.38918906     0.25700
C2701       C  0.75869458  0.95206276  0.39206067    -0.40700
C2702       C  0.75165936  0.97602510  0.37585111     0.32700
C2703       C  0.78490821  0.91913790  0.33405175     0.01300
F2704       F  0.78078931  0.86138713  0.36857456    -0.13000
F2705       F  0.74683904  0.51977692  0.37830801    -0.13500
C2706       C  0.82714564  0.91080613  0.33120852     0.16200
C2707       C  0.84134018  0.90596252  0.31258839     0.25700
C2708       C  0.81244823  0.90685544  0.29632066    -0.40600
C2709       C  0.76973030  0.91388069  0.29877838     0.32600
C2710       C  0.75642146  0.92047861  0.31742137     0.14300
F2711       F  0.85875921  0.91198737  0.34616502    -0.13000
F2712       F  0.74111741  0.91458476  0.28315399    -0.13500
F2713       F  0.88462739  0.90152767  0.31042473    -0.15800
F2714       F  0.71335744  0.92508643  0.31915528    -0.14300
F2715       F  0.76559859  0.99846781  0.34249806    -0.14300
F2716       F  0.77385080  0.88851341  0.40461693    -0.15800
C2717       C  0.80640816  0.91484279  0.12978960     0.14300
C2718       C  0.77987069  0.92495545  0.14421205     0.01300
C2719       C  0.74207521  0.93722035  0.13818403     0.16200
C2720       C  0.73459774  0.94315582  0.11846620     0.25700
C2721       C  0.76606563  0.93907413  0.10434445    -0.40700
C2722       C  0.79973767  0.92207837  0.11003086     0.32700
C2723       C  0.79290965  0.92475211  0.16533442     0.01300
F2724       F  0.71589473  0.94811077  0.15130634    -0.13000
F2725       F  0.83021425  0.91732970  0.09663350    -0.13500
C2726       C  0.84876839  0.95170988  0.17207184     0.16200
C2727       C  0.86065666  0.95150419  0.19182148     0.25700
C2728       C  0.81677972  0.92015545  0.20513146    -0.40600
C2729       C  0.76109133  0.89586371  0.19870595     0.32600
C2730       C  0.74952282  0.89831126  0.17906424     0.14300
F2731       F  0.89236085  0.97699092  0.15954679    -0.13000
F2732       F  0.71756329  0.86679131  0.21120327    -0.13500
F2733       F  0.91516239  0.97547085  0.19730084    -0.15800
F2734       F  0.69545833  0.87096825  0.17316992    -0.14300
F2735       F  0.84041232  0.89972690  0.13476819    -0.14300
F2736       F  0.70216328  0.95991955  0.11321926    -0.15800
C2737       C  0.88849594  0.61958823  0.36999018     0.14300
C2738       C  0.91787795  0.59942330  0.36301268     0.01300
C2739       C  0.92628502  0.56849443  0.37594155     0.16200
C2740       C  0.89689408  0.54990933  0.39353316     0.25700
C2741       C  0.86194977  0.56505127  0.39915999    -0.40700
C2742       C  0.86233625  0.60388178  0.38817053     0.32700
C2743       C  0.93185880  0.60459443  0.34174889     0.01300
F2744       F  0.96142056  0.55480330  0.37135302    -0.13000
F2745       F  0.83185011  0.62176555  0.39398416    -0.13500
C2746       C  0.95201838  0.65175592  0.33131124     0.16200
C2747       C  0.95218841  0.65283218  0.31095504     0.25700
C2748       C  0.93718348  0.60756389  0.30036433    -0.40600
C2749       C  0.92364214  0.56235118  0.31089793     0.32600
C2750       C  0.91996015  0.56063603  0.33122486     0.14300
F2751       F  0.97616342  0.69786788  0.34088960    -0.13000
F2752       F  0.91663983  0.52077797  0.30154442    -0.13500
F2753       F  0.97209495  0.69981886  0.30176723    -0.15800
F2754       F  0.90655681  0.51638677  0.34071597    -0.14300
F2755       F  0.88055010  0.65065861  0.35849600    -0.14300
F2756       F  0.90007373  0.51483798  0.40459934    -0.15800
C2757       C  0.84940012  0.55813257  0.17790840     0.14300
C2758       C  0.89028227  0.57352470  0.16325459     0.01300
C2759       C  0.94486092  0.59129543  0.16940473     0.16200
C2760       C  0.95694820  0.59136870  0.18904988     0.25700
C2761       C  0.91904797  0.58415179  0.20323318    -0.40700
C2762       C  0.86488117  0.56722067  0.19760870     0.32700
C2763       C  0.87591553  0.57001136  0.14194817     0.01300
F2764       F  0.98803163  0.61171053  0.15674100    -0.13000
F2765       F  0.82662896  0.55771956  0.21116006    -0.13500
C2766       C  0.83646331  0.57973431  0.13535744     0.16200
C2767       C  0.81688009  0.56974763  0.11612415     0.25700
C2768       C  0.83762638  0.55123305  0.10294186    -0.40600
C2769       C  0.88196229  0.54808184  0.10860084     0.32600
C2770       C  0.89991560  0.55578041  0.12788889     0.14300
F2771       F  0.81521608  0.59714207  0.14774141    -0.13000
F2772       F  0.90650065  0.03699182  0.09517210    -0.13500
F2773       F  0.77455249  0.57395576  0.11079170    -0.15800
F2774       F  0.93788990  0.04638060  0.13220674    -0.14300
F2775       F  0.79419398  0.53280467  0.17342729    -0.14300
F2776       F  0.00820914  0.60336303  0.19423609    -0.15800
C2777       C  0.64150062  0.76884102  0.32461349     0.14300
C2778       C  0.61772070  0.72437975  0.33712756     0.01300
C2779       C  0.58594917  0.67349148  0.32930281     0.16200
C2780       C  0.58071484  0.66723453  0.30933498     0.25700
C2781       C  0.60292202  0.71156045  0.29678492    -0.40700
C2782       C  0.63267583  0.76246025  0.30454986     0.32700
C2783       C  0.63500372  0.72987999  0.35762839     0.01300
F2784       F  0.56462810  0.62983435  0.34090035    -0.13000
F2785       F  0.65466385  0.80561518  0.29270220    -0.13500
C2786       C  0.59492912  0.70354843  0.37247941     0.16200
C2787       C  0.61123749  0.69728779  0.39094257     0.25700
C2788       C  0.66791825  0.71814111  0.39469368    -0.40600
C2789       C  0.70828030  0.74816542  0.38030068     0.32600
C2790       C  0.69176431  0.75300048  0.36179461     0.14300
F2791       F  0.53981453  0.68141873  0.36874234    -0.13000
F2792       F  0.76351696  0.77048750  0.38398303    -0.13500
F2793       F  0.57148875  0.66801971  0.40467771    -0.15800
F2794       F  0.73065362  0.77711538  0.34748323    -0.14300
F2795       F  0.67429025  0.81823744  0.33183805    -0.14300
F2796       F  0.55327107  0.61729343  0.30232544    -0.15800
C2797       C  0.73869769  0.76459556  0.14305603     0.14300
C2798       C  0.69886966  0.77453884  0.14791321     0.01300
C2799       C  0.68018110  0.79328109  0.13308020     0.16200
C2800       C  0.69115765  0.79084510  0.11355868     0.25700
C2801       C  0.72643927  0.77548593  0.10876106    -0.40700
C2802       C  0.75613255  0.77026578  0.12385443     0.32700
C2803       C  0.67165971  0.75937224  0.16743976     0.01300
F2804       F  0.64865370  0.81112668  0.13739656    -0.13000
F2805       F  0.79862405  0.76579821  0.11980537    -0.13500
C2806       C  0.70206237  0.76753329  0.18480663     0.16200
C2807       C  0.67422492  0.74768529  0.20263830     0.25700
C2808       C  0.61634589  0.72358779  0.20362992    -0.40600
C2809       C  0.58654943  0.71812008  0.18666181     0.32600
C2810       C  0.61297421  0.73238152  0.16866517     0.14300
F2811       F  0.75854924  0.79479328  0.18461624    -0.13000
F2812       F  0.53173363  0.70008209  0.18755088    -0.13500
F2813       F  0.70372163  0.75281633  0.21893237    -0.15800
F2814       F  0.58060501  0.71828642  0.15242374    -0.14300
F2815       F  0.75680572  0.74435722  0.15627748    -0.14300
F2816       F  0.66506884  0.80083620  0.09952617    -0.15800
C2817       C  0.84806423  0.78377563  0.82227975     0.14300
C2818       C  0.88244923  0.78735938  0.83772414     0.01300
C2819       C  0.93312312  0.79396581  0.83358691     0.16200
C2820       C  0.94937628  0.79734351  0.81446723     0.25700
C2821       C  0.91661953  0.79621006  0.79909965    -0.40700
C2822       C  0.86590797  0.78967674  0.80301249     0.32700
C2823       C  0.86769064  0.78684616  0.85818523     0.01300
F2824       F  0.96688688  0.79689372  0.84812489    -0.13000
F2825       F  0.83432682  0.78966338  0.78829743    -0.13500
C2826       C  0.81695720  0.74355816  0.86601784     0.16200
C2827       C  0.80366959  0.74365810  0.88537577     0.25700
C2828       C  0.83966476  0.78822437  0.89680661    -0.40600
C2829       C  0.89153807  0.83036129  0.88939064     0.32600
C2830       C  0.90547524  0.82978851  0.87018272     0.14300
F2831       F  0.77924612  0.70213032  0.85481888    -0.13000
F2832       F  0.92674314  0.87370021  0.90037714    -0.13500
F2833       F  0.75355974  0.70236194  0.89249099    -0.15800
F2834       F  0.95440601  0.87258059  0.86297054    -0.14300
F2835       F  0.79852992  0.77671261  0.82584481    -0.14300
F2836       F  0.99882362  0.80432389  0.81094850    -0.15800
C2837       C  0.62620005  0.86239919  0.82739432     0.14300
C2838       C  0.65076351  0.91403883  0.83349015     0.01300
C2839       C  0.66352269  0.95328874  0.81969637     0.16200
C2840       C  0.64479255  0.93963523  0.80054638     0.25700
C2841       C  0.61351499  0.88616818  0.79491898    -0.40700
C2842       C  0.60854156  0.84821759  0.80813784     0.32700
C2843       C  0.65465135  0.92406481  0.85452181     0.01300
F2844       F  0.69196961  0.00440954  0.82492311    -0.13000
F2845       F  0.58172462  0.79666011  0.80307672    -0.13500
C2846       C  0.69189391  0.92049081  0.86645668     0.16200
C2847       C  0.69361795  0.92830800  0.88644458     0.25700
C2848       C  0.65812569  0.93986319  0.89472113    -0.40600
C2849       C  0.61764622  0.93901694  0.88302455     0.32600
C2850       C  0.61610228  0.93134707  0.86302815     0.14300
F2851       F  0.72810074  0.91157010  0.85868087    -0.13000
F2852       F  0.58238592  0.94929718  0.89079960    -0.13500
F2853       F  0.74137261  0.43155312  0.89739162    -0.15800
F2854       F  0.57722525  0.93130639  0.85188415    -0.14300
F2855       F  0.61623140  0.82552997  0.84075964    -0.14300
F2856       F  0.65411664  0.97818897  0.78788637    -0.15800
C2857       C  0.59799865  0.91000651  0.67144219     0.14300
C2858       C  0.63545278  0.89714091  0.66654555     0.01300
C2859       C  0.65723065  0.88189280  0.68149046     0.16200
C2860       C  0.63832502  0.87559474  0.70060574     0.25700
C2861       C  0.59908057  0.88637763  0.70510428    -0.40700
C2862       C  0.58058969  0.90527197  0.69049482     0.32700
C2863       C  0.65233748  0.90194985  0.64593979     0.01300
F2864       F  0.69559088  0.87181284  0.67760246    -0.13000
F2865       F  0.54294501  0.91639732  0.69442297    -0.13500
C2866       C  0.70942288  0.93263118  0.64071631     0.16200
C2867       C  0.72483789  0.94684913  0.62129404     0.25700
C2868       C  0.68350688  0.93059704  0.60687456    -0.40600
C2869       C  0.62669810  0.89586643  0.61173807     0.32600
C2870       C  0.61114500  0.88132489  0.63112908     0.14300
F2871       F  0.75035777  0.95258179  0.65446443    -0.13000
F2872       F  0.58623541  0.87942282  0.59790938    -0.13500
F2873       F  0.78014961  0.98014489  0.61669404    -0.15800
F2874       F  0.55559119  0.84903663  0.63554179    -0.14300
F2875       F  0.57894737  0.92841561  0.65780712    -0.14300
F2876       F  0.65799580  0.85875614  0.71467205    -0.15800
C2877       C  0.88494579  0.79072238  0.63198727     0.14300
C2878       C  0.84424207  0.76569021  0.64677023     0.01300
C2879       C  0.78729148  0.73317303  0.64150163     0.16200
C2880       C  0.77098732  0.72640986  0.62191204     0.25700
C2881       C  0.81150911  0.75364604  0.60719233    -0.40700
C2882       C  0.86872128  0.78404627  0.61236089     0.32700
C2883       C  0.86085040  0.77556879  0.66767430     0.01300
F2884       F  0.74752208  0.71220481  0.65548303    -0.13000
F2885       F  0.90864724  0.81126813  0.59851021    -0.13500
C2886       C  0.89192467  0.82749912  0.67478109     0.16200
C2887       C  0.90988601  0.83773428  0.69412776     0.25700
C2888       C  0.89934343  0.79634436  0.70671120    -0.40600
C2889       C  0.86541821  0.74387737  0.69993541     0.32600
C2890       C  0.84571997  0.73357411  0.68069776     0.14300
F2891       F  0.90606825  0.86882142  0.66285925    -0.13000
F2892       F  0.85254007  0.70258055  0.71175051    -0.13500
F2893       F  0.94080835  0.88888319  0.70008025    -0.15800
F2894       F  0.81393276  0.68264987  0.67465909    -0.14300
F2895       F  0.94046626  0.82289733  0.63659876    -0.14300
F2896       F  0.71536342  0.69709638  0.61734940    -0.15800
C2897       C  0.55495381  0.66113829  0.87453750     0.14300
C2898       C  0.54679595  0.68290420  0.85780264     0.01300
C2899       C  0.53446233  0.72025245  0.86032637     0.16200
C2900       C  0.52800737  0.73391820  0.87886425     0.25700
C2901       C  0.53192130  0.70921494  0.89550159    -0.40700
C2902       C  0.54775345  0.67427182  0.89321877     0.32700
C2903       C  0.55327571  0.66927286  0.83764975     0.01300
F2904       F  0.52557342  0.74155226  0.84468010    -0.13000
F2905       F  0.03555367  0.63621035  0.90773713    -0.13500
C2906       C  0.51748359  0.61791501  0.83001109     0.16200
C2907       C  0.52253392  0.60775840  0.81053473     0.25700
C2908       C  0.56426823  0.64876377  0.79828300    -0.40600
C2909       C  0.59993180  0.69993918  0.80615126     0.32600
C2910       C  0.59471600  0.70940378  0.82548821     0.14300
F2911       F  0.47809978  0.57731266  0.84140289    -0.13000
F2912       F  0.64132075  0.74114964  0.79534494    -0.13500
F2913       F  0.48780164  0.55736967  0.80397743    -0.15800
F2914       F  0.63228739  0.75787190  0.83273315    -0.14300
F2915       F  0.56847313  0.62620108  0.87280524    -0.14300
F2916       F  0.51304106  0.76794875  0.88051605    -0.15800
C2917       C  0.66723844  0.57882395  0.87299382     0.14300
C2918       C  0.69967847  0.57904507  0.85798851     0.01300
C2919       C  0.74051001  0.57027160  0.86300049     0.16200
C2920       C  0.74530225  0.55635585  0.88189553     0.25700
C2921       C  0.70809746  0.54940858  0.89621357    -0.40700
C2922       C  0.67136855  0.56403109  0.89204086     0.32700
C2923       C  0.68694964  0.58159337  0.83701185     0.01300
F2924       F  0.77202406  0.56982848  0.84914453    -0.13000
F2925       F  0.63686275  0.56029623  0.90601468    -0.13500
C2926       C  0.73029339  0.61363429  0.82350474     0.16200
C2927       C  0.71868339  0.61140205  0.80365088     0.25700
C2928       C  0.66350507  0.57672757  0.79655002    -0.40600
C2929       C  0.62041643  0.54280540  0.80986242     0.32600
C2930       C  0.63188448  0.54580864  0.82983073     0.14300
F2931       F  0.78443846  0.64722145  0.82931908    -0.13000
F2932       F  0.56652810  0.50801777  0.80373604    -0.13500
F2933       F  0.76172569  0.64420949  0.79137099    -0.15800
F2934       F  0.58913539  0.51243722  0.84209365    -0.14300
F2935       F  0.62982711  0.59045426  0.86899931    -0.14300
F2936       F  0.77994973  0.04295307  0.88536361    -0.15800
C2937       C  0.68849488  0.54257831  0.67753071     0.14300
C2938       C  0.68098030  0.56761806  0.66173239     0.01300
C2939       C  0.66266764  0.59961113  0.66554399     0.16200
C2940       C  0.65444130  0.60835080  0.68470299     0.25700
C2941       C  0.65991727  0.58194005  0.70052431    -0.40700
C2942       C  0.67692003  0.54863225  0.69674348     0.32700
C2943       C  0.69090024  0.55920654  0.64130686     0.01300
F2944       F  0.65296568  0.62261259  0.65062773    -0.13000
F2945       F  0.68322918  0.52283480  0.71157505    -0.13500
C2946       C  0.64569852  0.52224372  0.62940561     0.16200
C2947       C  0.65555160  0.50873540  0.61132291     0.25700
C2948       C  0.71083238  0.53193180  0.60477877    -0.40600
C2949       C  0.75541565  0.57364067  0.61553924     0.32600
C2950       C  0.74551982  0.58733430  0.63359323     0.14300
F2951       F  0.59199604  0.49878750  0.63539829    -0.13000
F2952       F  0.80859175  0.59998968  0.60877510    -0.13500
F2953       F  0.60790192  0.97854652  0.60011834    -0.15800
F2954       F  0.78939739  0.62758372  0.64365323    -0.14300
F2955       F  0.70582184  0.51123918  0.67418830    -0.14300
F2956       F  0.64102395  0.64287264  0.68779078    -0.15800
C2957       C  0.52592085  0.62727789  0.67117564     0.14300
C2958       C  0.56361442  0.67941309  0.66392167     0.01300
C2959       C  0.59639961  0.72003924  0.67748135     0.16200
C2960       C  0.59316266  0.70899317  0.69734715     0.25700
C2961       C  0.56008769  0.65636367  0.70426005    -0.40700
C2962       C  0.52572958  0.61572204  0.69095584     0.32700
C2963       C  0.56783314  0.69120300  0.64250306     0.01300
F2964       F  0.63445018  0.77051903  0.67166495    -0.13000
F2965       F  0.49713833  0.56420014  0.69666084    -0.13500
C2966       C  0.57045397  0.73571611  0.63536776     0.16200
C2967       C  0.56792070  0.74326061  0.61543677     0.25700
C2968       C  0.55741007  0.70453910  0.60231880    -0.40600
C2969       C  0.55992960  0.66276555  0.60890534     0.32600
C2970       C  0.56626008  0.65670274  0.62880459     0.14300
F2971       F  0.56934591  0.76904337  0.64754798    -0.13000
F2972       F  0.55140108  0.62541232  0.59632984    -0.13500
F2973       F  0.56774420  0.78471523  0.60894769    -0.15800
F2974       F  0.56757447  0.61526333  0.63462434    -0.14300
F2975       F  0.49005996  0.58693221  0.65913760    -0.14300
F2976       F  0.62652856  0.74974254  0.70962747    -0.15800
C2977       C  0.90936824  0.64300877  0.82003618     0.14300
C2978       C  0.87939970  0.60459834  0.83494904     0.01300
C2979       C  0.84065126  0.55137375  0.82937791     0.16200
C2980       C  0.83214966  0.53729480  0.80982673     0.25700
C2981       C  0.86469375  0.57513179  0.79526953    -0.40700
C2982       C  0.90359891  0.62811740  0.80051751     0.32700
C2983       C  0.88817716  0.61948783  0.85611185     0.01300
F2984       F  0.80926121  0.51273287  0.84280702    -0.13000
F2985       F  0.93595200  0.66544590  0.78675996    -0.13500
C2986       C  0.88828343  0.66264740  0.86251801     0.16200
C2987       C  0.90059020  0.67897813  0.88193825     0.25700
C2988       C  0.91233574  0.65200639  0.89550476    -0.40600
C2989       C  0.90609365  0.60554899  0.88975417     0.32600
C2990       C  0.89518077  0.58996541  0.87027823     0.14300
F2991       F  0.87653141  0.68915336  0.84994702    -0.13000
F2992       F  0.91501219  0.57751124  0.90277432    -0.13500
F2993       F  0.90544487  0.72361716  0.88716740    -0.15800
F2994       F  0.89393886  0.54714043  0.86531245    -0.14300
F2995       F  0.94544240  0.69495256  0.82421309    -0.14300
F2996       F  0.79366361  0.48570647  0.80519929    -0.15800
C2997       C  0.76795584  0.87004539  0.82119803     0.14300
C2998       C  0.81401298  0.88164105  0.83257798     0.01300
C2999       C  0.86623117  0.90460690  0.82330980     0.16200
C3000       C  0.87260895  0.91916331  0.80349730     0.25700
C3001       C  0.82640637  0.90963503  0.79241622    -0.40700
C3002       C  0.77328548  0.88170645  0.80138303     0.32700
C3003       C  0.80663061  0.87025268  0.85399893     0.01300
F3004       F  0.91130565  0.91369448  0.83343974    -0.13000
F3005       F  0.72668380  0.86976624  0.79148717    -0.13500
C3006       C  0.76051351  0.82098649  0.86114517     0.16200
C3007       C  0.75232037  0.81062851  0.88110826     0.25700
C3008       C  0.79223539  0.84754457  0.89443755    -0.40600
C3009       C  0.83673887  0.89771722  0.88757050     0.32600
C3010       C  0.84373796  0.90907327  0.86753351     0.14300
F3011       F  0.72553868  0.78111413  0.84883078    -0.13000
F3012       F  0.87581292  0.93418100  0.90017403    -0.13500
F3013       F  0.70854278  0.76205733  0.88739999    -0.15800
F3014       F  0.88786333  0.95743596  0.86135984    -0.14300
F3015       F  0.71811720  0.85113291  0.82957920    -0.14300
F3016       F  0.92444426  0.94444134  0.79546381    -0.15800
C3017       C  0.92495065  0.65993375  0.67727315     0.14300
C3018       C  0.88807193  0.62696390  0.66234667     0.01300
C3019       C  0.83863651  0.57794103  0.66753092     0.16200
C3020       C  0.82868986  0.55981164  0.68678655     0.25700
C3021       C  0.86790846  0.59058150  0.70145553    -0.40700
C3022       C  0.91545547  0.64149713  0.69663020     0.32700
C3023       C  0.90326223  0.64009227  0.64136088     0.01300
F3024       F  0.80121279  0.54629176  0.65363778    -0.13000
F3025       F  0.95399994  0.67233024  0.71048013    -0.13500
C3026       C  0.90360586  0.60368188  0.62949325     0.16200
C3027       C  0.92037027  0.61585883  0.61012182     0.25700
C3028       C  0.93721314  0.66489994  0.60203048    -0.40600
C3029       C  0.93348663  0.70022876  0.61335271     0.32600
C3030       C  0.91770647  0.68827525  0.63300046     0.14300
F3031       F  0.89007230  0.55695139  0.63690438    -0.13000
F3032       F  0.94930201  0.74783271  0.60579632    -0.13500
F3033       F  0.92292084  0.58075462  0.59946797    -0.15800
F3034       F  0.91792437  0.72410400  0.64405640    -0.14300
F3035       F  0.97196467  0.70856722  0.67306359    -0.14300
F3036       F  0.78407848  0.50934913  0.69069805    -0.15800
C3037       C  0.84644539  0.94138605  0.66482049     0.14300
C3038       C  0.81125219  0.88696140  0.66109371     0.01300
C3039       C  0.78624901  0.85091386  0.67691026     0.16200
C3040       C  0.79559940  0.86964153  0.69600778     0.25700
C3041       C  0.83094817  0.92435242  0.69946534    -0.40700
C3042       C  0.85579594  0.95982614  0.68371419     0.32700
C3043       C  0.80076485  0.86859908  0.64069551     0.01300
F3044       F  0.75284642  0.79782238  0.67389447    -0.13000
F3045       F  0.88561106  0.01277598  0.68649130    -0.13500
C3046       C  0.84593885  0.88725724  0.62785407     0.16200
C3047       C  0.83596842  0.86757806  0.60908467     0.25700
C3048       C  0.78131503  0.82694339  0.60321181    -0.40600
C3049       C  0.73594197  0.81122600  0.61527458     0.32600
C3050       C  0.74557441  0.83298126  0.63371838     0.14300
F3051       F  0.90000640  0.92260215  0.63364803    -0.13000
F3052       F  0.68293720  0.77218560  0.60969836    -0.13500
F3053       F  0.88018736  0.88491542  0.59712297    -0.15800
F3054       F  0.70106897  0.81919294  0.64473995    -0.14300
F3055       F  0.86972195  0.97703643  0.64999942    -0.14300
F3056       F  0.76964737  0.83467952  0.71101762    -0.15800
loop_ 
_geom_bond_atom_site_label_1 
_geom_bond_atom_site_label_2 
_geom_bond_distance 
_geom_bond_site_symmetry_2 
_ccdc_geom_bond_type 
O1           Ni7   1.937   1_556  S
O1           C22   1.284       .  A
O2          Ni25   1.967       .  S
O2           C11   1.314       .  A
O3           Ni7   1.817       .  S
O3          Ni25   1.876       .  S
O3          Ni19   1.860   1_554  S
O3           H26   0.962   1_554  S
C4           O21   1.310       .  A
C4           O13   1.301       .  A
C4          C128   1.520       .  S
O5          Ni24   1.949   1_554  S
O5           C11   1.293       .  A
O6          Ni24   1.955       .  S
O6            C8   1.278       .  A
Ni7          O10   1.977       .  S
Ni7          O12   1.916       .  S
C8           O18   1.268       .  A
C8          C136   1.500       .  S
O9          Ni25   1.938       .  S
O9           C15   1.291       .  A
O10          C15   1.299       .  A
C11         C246   1.500       .  S
O12          C14   1.268       .  A
O13         Ni24   1.988       .  S
C14          O20   1.303       .  A
C14         C261   1.513       .  S
C15         C277   1.482       .  S
H16          O17   0.966   1_554  S
O17         Ni25   1.868   1_556  S
O17         Ni19   1.840       .  S
O17         Ni24   1.837       .  S
O18         Ni19   1.947       .  S
Ni19         O23   1.922       .  S
Ni19         O21   1.951       .  S
O20         Ni25   1.976       .  S
C22          O23   1.294       .  A
C22         C111   1.482       .  S
O27         Ni33   1.951       .  S
O27          C48   1.293       .  A
O28         Ni51   1.918       .  S
O28          C37   1.290       .  A
O29         Ni33   1.830       .  S
O29         Ni51   1.831       .  S
O29         Ni45   1.856       .  S
O29          H52   0.966       .  S
C30          O47   1.302       .  A
C30          O39   1.315       .  A
C30         C270   1.501       .  S
O31         Ni50   1.977       .  S
O31          C37   1.295       .  A
O32         Ni50   1.950       .  S
O32          C34   1.272       .  A
Ni33         O36   1.986       .  S
Ni33         O38   1.938       .  S
C34          O44   1.281       .  A
C34         C253   1.513       .  S
O35         Ni51   1.909       .  S
O35          C41   1.292       .  A
O36          C41   1.303       .  A
C37         C120   1.507       .  S
O38          C40   1.274       .  A
O39         Ni50   2.015       .  S
C40          O46   1.282       .  A
C40          C95   1.495       .  S
C41         C103   1.497       .  S
H42          O43   0.962       .  S
O43         Ni51   1.852       .  S
O43         Ni45   1.885       .  S
O43         Ni50   1.808       .  S
O44         Ni45   1.931       .  S
Ni45         O49   1.939       .  S
Ni45         O47   1.952       .  S
O46         Ni51   1.954       .  S
C48          O49   1.300       .  A
C48         C223   1.480       .  S
O53        Ni825   1.920       .  S
O53          C63   1.281       .  A
O54         Ni61   1.922       .  S
O54          C64   1.282       .  A
O55         Ni61   1.929       .  S
O55          C65   1.285       .  A
O56        Ni825   1.922       .  S
O56          C66   1.282       .  A
O57        Ni826   1.915   1_545  S
O57          C66   1.280       .  A
O58         Ni62   1.909       .  S
O58          C65   1.277       .  A
O59         Ni62   1.904       .  S
O59          C64   1.281       .  A
O60        Ni826   1.922   1_545  S
O60          C63   1.284       .  A
Ni61        O817   1.922       .  S
Ni61        O820   1.927       .  S
Ni61        Ni62   2.388       .  S
Ni62        O821   1.913       .  S
Ni62        O824   1.919       .  S
C63         C729   1.481       .  S
C64         C709   1.487       .  S
C65         C749   1.473       .  S
C66         C689   1.474       .  S
O67         Ni75   1.943       .  S
O67          C77   1.286       .  A
O68         Ni75   1.938       .  S
O68          C78   1.286       .  A
O69         Ni75   1.915       .  S
O69          C79   1.281       .  A
O70         Ni75   1.912       .  S
O70          C80   1.281       .  A
O71         Ni76   1.911       .  S
O71          C80   1.281       .  A
O72         Ni76   1.904       .  S
O72          C79   1.280       .  A
O73         Ni76   1.917       .  S
O73          C78   1.282       .  A
O74         Ni76   1.927       .  S
O74          C77   1.282       .  A
Ni75        Ni76   2.383       .  S
C77         C649   1.491       .  S
C78         C616   1.503       .  S
C79         C669   1.484       .  S
C80         C636   1.483       .  S
O81       Ni1617   1.909       .  S
O81          C91   1.282       .  A
O82         Ni89   1.907       .  S
O82          C92   1.280       .  A
O83         Ni89   1.913       .  S
O83          C93   1.279       .  A
O84       Ni1617   1.904       .  S
O84          C94   1.279       .  A
O85       Ni1618   1.905       .  S
O85          C94   1.278       .  A
O86         Ni90   1.917       .  S
O86          C93   1.281       .  A
O87         Ni90   1.928       .  S
O87          C92   1.284       .  A
O88       Ni1618   1.917       .  S
O88          C91   1.281       .  A
Ni89       O1609   1.908       .  S
Ni89       O1612   1.905       .  S
Ni89        Ni90   2.389       .  S
Ni90       O1613   1.912       .  S
Ni90       O1616   1.919       .  S
C91         C549   1.481       .  S
C92         C596   1.488       .  S
C93         C529   1.466       .  S
C94         C569   1.460       .  S
C95         C100   1.414       .  A
C95        C1624   1.450       .  A
C96         C157   1.505       .  S
C96          C97   1.415       .  A
C96        C1623   1.450   1_455  A
C97          C98   1.399       .  A
C97         H102   1.085       .  S
C98         C676   1.485       .  S
C98        C1627   1.408   1_455  A
C99         C736   1.489       .  S
C99         C100   1.392       .  A
C99        C1626   1.408       .  A
C100        H101   1.086       .  S
C103        C108   1.423       .  A
C103        C868   1.433   1_545  A
C104        C153   1.502       .  S
C104        C105   1.413       .  A
C104        C867   1.434       .  A
C105        C106   1.395       .  A
C105        H110   1.084       .  S
C106        C576   1.466       .  S
C106        C871   1.403       .  A
C107        C656   1.497       .  S
C107        C108   1.394       .  A
C107        C870   1.404   1_545  A
C108        H109   1.084       .  S
C111        C112   1.437       .  A
C111        C116   1.410       .  A
C112        C179   1.498       .  S
C112        C113   1.415       .  A
C113        C114   1.398       .  A
C113        H118   1.085       .  S
C114        C716   1.477       .  S
C114        C115   1.405       .  A
C115        C536   1.478       .  S
C115        C116   1.385       .  A
C116        H117   1.085       .  S
C119        C156   1.508       .  S
C119        C120   1.443       .  A
C119        C124   1.417       .  A
C120        C121   1.423       .  A
C121        C122   1.396       .  A
C121        H126   1.084       .  S
C122        C589   1.492       .  S
C122        C123   1.404       .  A
C123        C756   1.479       .  S
C123        C124   1.395       .  A
C124        H125   1.084       .  S
C127        C182   1.519       .  S
C127        C132   1.415       .  A
C127        C892   1.465       .  A
C128        C129   1.420       .  A
C128        C891   1.461   1_545  A
C129        C130   1.389       .  A
C129        H134   1.084       .  S
C130        C629   1.489       .  S
C130        C895   1.408   1_545  A
C131        C556   1.481       .  S
C131        C132   1.400       .  A
C131        C894   1.406       .  A
C132        H133   1.086       .  S
C135        C183   1.529       .  S
C135        C140   1.431       .  A
C135       C1664   1.452   1_455  A
C136        C137   1.416       .  A
C136       C1663   1.456       .  A
C137        C138   1.395       .  A
C137        H142   1.086       .  S
C138        C696   1.488       .  S
C138       C1667   1.404       .  A
C139        C609   1.499       .  S
C139        C140   1.407       .  A
C139       C1666   1.405   1_455  A
C140        H141   1.083       .  S
O143       Ni149   1.972       .  S
O143        C164   1.293       .  A
O144       Ni167   1.937       .  S
O144        C153   1.298       .  A
O145       Ni149   1.815       .  S
O145       Ni167   1.885       .  S
O145       Ni161   1.863       .  S
O145        H168   0.963       .  S
C146        O163   1.301       .  A
C146        O155   1.304       .  A
C146        C224   1.504       .  S
O147       Ni166   1.966       .  S
O147        C153   1.297       .  A
O148       Ni166   1.941       .  S
O148        C150   1.276       .  A
Ni149       O152   2.018       .  S
Ni149       O154   1.948       .  S
C150        O160   1.287       .  A
C150        C269   1.500       .  S
O151       Ni167   1.953       .  S
O151        C157   1.303       .  A
O152        C157   1.315       .  A
O154        C156   1.270       .  A
O155       Ni166   1.988       .  S
C156        O162   1.276       .  A
H158        O159   0.966       .  S
O159       Ni167   1.861       .  S
O159       Ni161   1.838       .  S
O159       Ni166   1.826       .  S
O160       Ni161   1.966       .  S
Ni161       O165   1.941       .  S
Ni161       O163   1.939       .  S
O162       Ni167   1.923       .  S
C164        O165   1.301       .  A
C164        C254   1.514       .  S
O169       Ni175   1.979   1_554  S
O169        C190   1.303       .  A
O170       Ni193   1.925       .  S
O170        C179   1.291       .  A
O171       Ni175   1.831       .  S
O171       Ni193   1.848       .  S
O171       Ni187   1.877   1_556  S
O171        H194   0.966       .  S
C172        O189   1.291       .  A
C172        O181   1.311       .  A
C172        C245   1.503       .  S
O173       Ni192   1.969   1_556  S
O173        C179   1.295       .  A
O174       Ni192   1.942       .  S
O174        C176   1.272       .  A
Ni175       O178   2.011       .  S
Ni175       O180   1.972       .  S
C176        O186   1.296       .  A
C176        C262   1.523       .  S
O177       Ni193   1.948       .  S
O177        C183   1.303       .  A
O178        C183   1.309       .  A
O180        C182   1.283       .  A
O181       Ni192   2.017       .  S
C182        O188   1.274       .  A
H184        O185   0.961       .  S
O185       Ni193   1.865       .  S
O185       Ni187   1.876   1_556  S
O185       Ni192   1.806   1_556  S
O186       Ni187   1.968       .  S
Ni187       O191   1.949       .  S
Ni187       O189   1.940       .  S
O188       Ni193   1.961       .  S
C190        O191   1.302       .  A
C190        C278   1.514       .  S
O195      Ni1731   1.920       .  S
O195        C205   1.282       .  A
O196       Ni203   1.920       .  S
O196        C206   1.283       .  A
O197       Ni203   1.904       .  S
O197        C207   1.277       .  A
O198      Ni1731   1.901       .  S
O198        C208   1.278       .  A
O199      Ni1732   1.934       .  S
O199        C208   1.286       .  A
O200       Ni204   1.922       .  S
O200        C207   1.283       .  A
O201       Ni204   1.885       .  S
O201        C206   1.274       .  A
O202      Ni1732   1.906       .  S
O202        C205   1.278       .  A
Ni203      O1723   1.923   1_455  S
Ni203      O1726   1.901   1_455  S
Ni203      Ni204   2.392       .  S
Ni204      O1727   1.931   1_455  S
Ni204      O1730   1.903   1_455  S
C205        C469   1.465       .  S
C206        C489   1.461       .  S
C207        C516   1.463       .  S
C208        C456   1.488       .  S
O209       Ni217   1.914       .  S
O209        C219   1.280       .  A
O210       Ni217   1.927       .  S
O210        C220   1.283       .  A
O211       Ni217   1.918       .  S
O211        C221   1.282       .  A
O212       Ni217   1.919       .  S
O212        C222   1.282       .  A
O213       Ni218   1.920       .  S
O213        C222   1.282       .  A
O214       Ni218   1.909       .  S
O214        C221   1.281       .  A
O215       Ni218   1.920       .  S
O215        C220   1.280       .  A
O216       Ni218   1.912       .  S
O216        C219   1.280       .  A
Ni217      Ni218   2.388       .  S
C219        C416   1.465       .  S
C220        C396   1.474       .  S
C221        C376   1.484       .  S
C222        C436   1.489       .  S
C223        C228   1.413       .  A
C223        C988   1.434   1_545  A
C224        C225   1.416       .  A
C224        C987   1.435       .  A
C225        C226   1.403       .  A
C225        H230   1.084       .  S
C226        C409   1.482       .  S
C226        C991   1.409       .  A
C227        C449   1.490       .  S
C227        C228   1.391       .  A
C227        C990   1.410   1_545  A
C228        H229   1.085       .  S
O231      Ni1003   1.921       .  S
O231        C241   1.280       .  A
O232       Ni239   1.927       .  S
O232        C242   1.285       .  A
O233       Ni239   1.929       .  S
O233        C243   1.283       .  A
O234      Ni1003   1.916       .  S
O234        C244   1.282       .  A
O235      Ni1004   1.927       .  S
O235        C244   1.283       .  A
O236       Ni240   1.930       .  S
O236        C243   1.285       .  A
O237       Ni240   1.911       .  S
O237        C242   1.279       .  A
O238      Ni1004   1.924       .  S
O238        C241   1.283       .  A
Ni239       O995   1.924   1_545  S
Ni239       O998   1.916   1_545  S
Ni239      Ni240   2.386       .  S
Ni240       O999   1.930   1_545  S
Ni240      O1002   1.920   1_545  S
C241        C296   1.476       .  S
C242        C349   1.484       .  S
C243        C329   1.499       .  S
C244        C316   1.484       .  S
C245        C250   1.412       .  A
C245       C1010   1.453       .  A
C246        C247   1.415       .  A
C246       C1009   1.449   1_545  A
C247        C248   1.393       .  A
C247        H252   1.085       .  S
C248        C476   1.482       .  S
C248       C1013   1.407   1_545  A
C249        C429   1.489       .  S
C249        C250   1.395       .  A
C249       C1012   1.406       .  A
C250        H251   1.081       .  S
C253        C254   1.451       .  A
C253        C258   1.428       .  A
C254        C255   1.410       .  A
C255        C256   1.393       .  A
C255        H260   1.085       .  S
C256        C496   1.475       .  S
C256        C257   1.410       .  A
C257        C336   1.510       .  S
C257        C258   1.405       .  A
C258        H259   1.083       .  S
C261        C262   1.462       .  A
C261        C266   1.412       .  A
C262        C263   1.409       .  A
C263        C264   1.396       .  A
C263        H268   1.080       .  S
C264        C509   1.486       .  S
C264        C265   1.413       .  A
C265        C356   1.491       .  S
C265        C266   1.396       .  A
C266        H267   1.084       .  S
C269        C274   1.410       .  A
C269       C1798   1.452   1_455  A
C270        C271   1.414       .  A
C270       C1797   1.451       .  A
C271        C272   1.398       .  A
C271        H276   1.085       .  S
C272        C369   1.489       .  S
C272       C1801   1.409       .  A
C273        C289   1.482       .  S
C273        C274   1.392       .  A
C273       C1800   1.410   1_455  A
C274        H275   1.085       .  S
C277        C282   1.409       .  A
C277       C1806   1.434       .  A
C278        C279   1.428       .  A
C278       C1805   1.435   1_455  A
C279        C280   1.410       .  A
C279        H284   1.083       .  S
C280        C309   1.497       .  S
C280       C1809   1.409   1_455  A
C281        C389   1.482       .  S
C281        C282   1.394       .  A
C281       C1808   1.410       .  A
C282        H283   1.085       .  S
C285        C286   1.413       .  A
C285        C290   1.389       .  A
C285        F303   1.358       .  S
C286        C291   1.492       .  S
C286        C287   1.409       .  A
C287        C288   1.401       .  A
C287        F292   1.350       .  S
C288        C289   1.403       .  A
C288       F1832   1.357       .  S
C289        C290   1.400       .  A
C290        F293   1.358       .  S
C291        C294   1.403       .  A
C291        C298   1.419       .  A
C294        C295   1.387       .  A
C294        F299   1.359       .  S
C295        C296   1.398       .  A
C295        F301   1.347       .  S
C296        C297   1.404       .  A
C297        C298   1.412       .  A
C297        F300   1.357       .  S
C298        F302   1.356       .  S
F304       C1816   1.357       .  S
C305        C306   1.414       .  A
C305        C310   1.403       .  A
C305        F323   1.353       .  S
C306        C311   1.513       .  S
C306        C307   1.415       .  A
C307        C308   1.408       .  A
C307        F312   1.357       .  S
C308        C309   1.405       .  A
C308        F324   1.357       .  S
C309        C310   1.403       .  A
C310        F313   1.358       .  S
C311        C314   1.411       .  A
C311        C318   1.414       .  A
C314        C315   1.401       .  A
C314        F319   1.344       .  S
C315        C316   1.401       .  A
C315        F321   1.358       .  S
C316        C317   1.408       .  A
C317        C318   1.404       .  A
C317        F320   1.358       .  S
C318        F322   1.353       .  S
C325        C326   1.406       .  A
C325        C330   1.405       .  A
C325        F343   1.352       .  S
C326        C331   1.502       .  S
C326        C327   1.405       .  A
C327        C328   1.408       .  A
C327        F332   1.353       .  S
C328        C329   1.416       .  A
C328        F344   1.358       .  S
C329        C330   1.409       .  A
C330        F333   1.357       .  S
C331        C334   1.407       .  A
C331        C338   1.405       .  A
C334        C335   1.405       .  A
C334        F339   1.357       .  S
C335        C336   1.412       .  A
C335        F341   1.357       .  S
C336        C337   1.407       .  A
C337        C338   1.407       .  A
C337        F340   1.354       .  S
C338        F342   1.349       .  S
C345        C346   1.407       .  A
C345        C350   1.401       .  A
C345        F363   1.357       .  S
C346        C351   1.496       .  S
C346        C347   1.407       .  A
C347        C348   1.402       .  A
C347        F352   1.351       .  S
C348        C349   1.406       .  A
C348        F364   1.356       .  S
C349        C350   1.409       .  A
C350        F353   1.357       .  S
C351        C354   1.410       .  A
C351        C358   1.406       .  A
C354        C355   1.406       .  A
C354        F359   1.358       .  S
C355        C356   1.409       .  A
C355        F361   1.358       .  S
C356        C357   1.400       .  A
C357        C358   1.394       .  A
C357        F360   1.358       .  S
C358        F362   1.348       .  S
C365        C366   1.401       .  A
C365        C370   1.393       .  A
C365        F383   1.352       .  S
C366        C371   1.484       .  S
C366        C367   1.406       .  A
C367        C368   1.407       .  A
C367        F372   1.356       .  S
C368        C369   1.410       .  A
C368        F384   1.357       .  S
C369        C370   1.405       .  A
C370        F373   1.358       .  S
C371        C374   1.399       .  A
C371        C378   1.398       .  A
C374        C375   1.402       .  A
C374        F379   1.351       .  S
C375        C376   1.414       .  A
C375        F381   1.356       .  S
C376        C377   1.406       .  A
C377        C378   1.395       .  A
C377        F380   1.356       .  S
C378        F382   1.347       .  S
C385        C386   1.416       .  A
C385        C390   1.394       .  A
C385        F403   1.356       .  S
C386        C391   1.499       .  S
C386        C387   1.408       .  A
C387        C388   1.403       .  A
C387        F392   1.353       .  S
C388        C389   1.403       .  A
C388        F404   1.356       .  S
C389        C390   1.398       .  A
C390       F1921   1.358       .  S
C391        C394   1.400       .  A
C391        C398   1.422       .  A
F393       C1918   1.358       .  S
C394        C395   1.383       .  A
C394        F399   1.355       .  S
C395        C396   1.393       .  A
C395        F401   1.340       .  S
C396        C397   1.400       .  A
C397        C398   1.411       .  A
C397        F400   1.357       .  S
C398        F402   1.352       .  S
C405        C406   1.410       .  A
C405        C410   1.397       .  A
C405        F423   1.356       .  S
C406        C411   1.499       .  S
C406        C407   1.412       .  A
C407        C408   1.395       .  A
C407        F412   1.347       .  S
C408        C409   1.397       .  A
C408        F424   1.358       .  S
C409        C410   1.405       .  A
C410       F1177   1.357       .  S
C411        C414   1.412       .  A
C411        C418   1.414       .  A
F413       C1174   1.357   1_545  S
C414        C415   1.393       .  A
C414        F419   1.358       .  S
C415        C416   1.402       .  A
C415        F421   1.356       .  S
C416        C417   1.396       .  A
C417        C418   1.399       .  A
C417        F420   1.357       .  S
C418        F422   1.351       .  S
C425        C426   1.413       .  A
C425        C430   1.404       .  A
C425        F443   1.355       .  S
C426        C431   1.497       .  S
C426        C427   1.410       .  A
C427        C428   1.397       .  A
C427        F432   1.357       .  S
C428        C429   1.404       .  A
C428        F444   1.357       .  S
C429        C430   1.403       .  A
C430        F433   1.357       .  S
C431        C434   1.406       .  A
C431        C438   1.403       .  A
C434        C435   1.399       .  A
C434        F439   1.352       .  S
C435        C436   1.410       .  A
C435        F441   1.358       .  S
C436        C437   1.407       .  A
C437        C438   1.401       .  A
C437        F440   1.357       .  S
C438        F442   1.346       .  S
C445        C446   1.412       .  A
C445        C450   1.399       .  A
C445        F463   1.350       .  S
C446        C451   1.504       .  S
C446        C447   1.412       .  A
C447        C448   1.404       .  A
C447        F452   1.357       .  S
C448        C449   1.406       .  A
C448        F464   1.357       .  S
C449        C450   1.399       .  A
C450        F453   1.357       .  S
C451        C454   1.402       .  A
C451        C458   1.408       .  A
C454        C455   1.397       .  A
C454        F459   1.352       .  S
C455        C456   1.413       .  A
C455        F461   1.358       .  S
C456        C457   1.402       .  A
C457        C458   1.405       .  A
C457        F460   1.354       .  S
C458        F462   1.345       .  S
C465        C466   1.421       .  A
C465        C470   1.403       .  A
C465        F483   1.353       .  S
C466        C471   1.503       .  S
C466        C467   1.409       .  A
C467        C468   1.391       .  A
C467        F472   1.355       .  S
C468        C469   1.400       .  A
C468        F484   1.358       .  S
C469        C470   1.396       .  A
C470        F473   1.358       .  S
C471        C474   1.411       .  A
C471        C478   1.416       .  A
C474        C475   1.403       .  A
C474        F479   1.351       .  S
C475        C476   1.400       .  A
C475        F481   1.356       .  S
C476        C477   1.400       .  A
C477        C478   1.392       .  A
C477       F1244   1.358       .  S
C478       F1246   1.355       .  S
F480       C1241   1.359       .  S
F482       C1242   1.355       .  S
C485        C486   1.407       .  A
C485        C490   1.396       .  A
C485        F503   1.349       .  S
C486        C491   1.470       .  S
C486        C487   1.399       .  A
C487        C488   1.387       .  A
C487        F492   1.359       .  S
C488        C489   1.411       .  A
C488        F504   1.358       .  S
C489        C490   1.397       .  A
C490        F493   1.356       .  S
C491        C494   1.406       .  A
C491        C498   1.398       .  A
C494        C495   1.398       .  A
C494        F499   1.356       .  S
C495        C496   1.404       .  A
C495        F501   1.358       .  S
C496        C497   1.401       .  A
C497        C498   1.390       .  A
C497        F500   1.357       .  S
C498        F502   1.357       .  S
C505        C506   1.409       .  A
C505        C510   1.391       .  A
C505        F523   1.356       .  S
C506        C511   1.495       .  S
C506        C507   1.414       .  A
C507        C508   1.397       .  A
C507        F512   1.354       .  S
C508        C509   1.402       .  A
C508        F524   1.358       .  S
C509        C510   1.403       .  A
C510        F513   1.356       .  S
C511        C514   1.413       .  A
C511        C518   1.408       .  A
C514        C515   1.399       .  A
C514        F519   1.346       .  S
C515        C516   1.396       .  A
C515        F521   1.357       .  S
C516        C517   1.398       .  A
C517        C518   1.392       .  A
C517        F520   1.356       .  S
C518        F522   1.356       .  S
C525        C526   1.412       .  A
C525        C530   1.404       .  A
C525        F543   1.355       .  S
C526        C531   1.485       .  S
C526        C527   1.403       .  A
C527        C528   1.391       .  A
C527        F532   1.357       .  S
C528        C529   1.401       .  A
C528        F544   1.353       .  S
C529        C530   1.401       .  A
C530        F533   1.357       .  S
C531        C534   1.406       .  A
C531        C538   1.411       .  A
C534        C535   1.395       .  A
C534        F539   1.352       .  S
C535        C536   1.401       .  A
C535        F541   1.358       .  S
C536        C537   1.402       .  A
C537        C538   1.398       .  A
C537        F540   1.358       .  S
C538        F542   1.358       .  S
C545        C546   1.390       .  A
C545        C550   1.400       .  A
C545        F563   1.344       .  S
C546        C551   1.480       .  S
C546        C547   1.398       .  A
C547        C548   1.393       .  A
C547        F552   1.342       .  S
C548        C549   1.407       .  A
C548        F564   1.358       .  S
C549        C550   1.411       .  A
C550        F553   1.358       .  S
C551        C554   1.405       .  A
C551        C558   1.405       .  A
C554        C555   1.398       .  A
C554        F559   1.354       .  S
C555        C556   1.405       .  A
C555       F1325   1.358       .  S
C556        C557   1.405       .  A
C557        C558   1.398       .  A
C557        F560   1.358       .  S
C558        F562   1.357       .  S
F561       C1319   1.358       .  S
C565        C566   1.406       .  A
C565        C570   1.386       .  A
C565        F583   1.355       .  S
C566        C571   1.478       .  S
C566        C567   1.408       .  A
C567        C568   1.397       .  A
C567        F572   1.353       .  S
C568        C569   1.402       .  A
C568        F584   1.357       .  S
C569        C570   1.401       .  A
C570        F573   1.357       .  S
C571        C574   1.405       .  A
C571        C578   1.410       .  A
C574        C575   1.392       .  A
C574        F579   1.355       .  S
C575        C576   1.401       .  A
C575        F581   1.358       .  S
C576        C577   1.397       .  A
C577        C578   1.394       .  A
C577        F580   1.359       .  S
C578        F582   1.358       .  S
C585        C586   1.410       .  A
C585        C590   1.404       .  A
C585        F603   1.358       .  S
C586        C591   1.491       .  S
C586        C587   1.402       .  A
C587        C588   1.400       .  A
C587        F592   1.354       .  S
C588        C589   1.408       .  A
C588        F604   1.358       .  S
C589        C590   1.405       .  A
C590        F593   1.358       .  S
C591        C594   1.402       .  A
C591        C598   1.409       .  A
C594        C595   1.396       .  A
C594        F599   1.354       .  S
C595        C596   1.412       .  A
C595        F601   1.358       .  S
C596        C597   1.408       .  A
C597        C598   1.402       .  A
C597        F600   1.358       .  S
C598        F602   1.353       .  S
C605        C606   1.407       .  A
C605        C610   1.411       .  A
C605        F623   1.355       .  S
C606        C611   1.503       .  S
C606        C607   1.407       .  A
C607        C608   1.401       .  A
C607        F612   1.349       .  S
C608        C609   1.403       .  A
C608        F624   1.358       .  S
C609        C610   1.411       .  A
C610       F2141   1.357       .  S
C611        C614   1.408       .  A
C611        C618   1.398       .  A
F613       C2138   1.357       .  S
C614        C615   1.411       .  A
C614        F619   1.352   1_455  S
C615        C616   1.415       .  A
C615        F621   1.357   1_455  S
C616        C617   1.412       .  A
C617        C618   1.398       .  A
C617        F620   1.358       .  S
C618        F622   1.345       .  S
C625        C626   1.410       .  A
C625        C630   1.408       .  A
C625        F643   1.355       .  S
C626        C631   1.498       .  S
C626        C627   1.400       .  A
C627        C628   1.392       .  A
C627        F632   1.340       .  S
C628        C629   1.397       .  A
C628       F1408   1.355       .  S
C629        C630   1.407       .  A
C630        F633   1.357       .  S
C631        C634   1.414       .  A
C631        C638   1.408       .  A
C634        C635   1.397       .  A
C634        F639   1.351       .  S
C635        C636   1.404       .  A
C635        F641   1.358       .  S
C636        C637   1.412       .  A
C637        C638   1.400       .  A
C637        F640   1.358       .  S
C638        F642   1.357       .  S
F644       C1392   1.356       .  S
C645        C646   1.410       .  A
C645        C650   1.411       .  A
C645        F663   1.352       .  S
C646        C651   1.495       .  S
C646        C647   1.400       .  A
C647        C648   1.402       .  A
C647        F652   1.357       .  S
C648        C649   1.409       .  A
C648        F664   1.352       .  S
C649        C650   1.405       .  A
C650        F653   1.357       .  S
C651        C654   1.406       .  A
C651        C658   1.406       .  A
C654        C655   1.405       .  A
C654        F659   1.357       .  S
C655        C656   1.409       .  A
C655       F1425   1.357   1_545  S
C656        C657   1.401       .  A
C657        C658   1.403       .  A
C657        F660   1.354       .  S
C658        F662   1.349       .  S
F661       C1419   1.356       .  S
C665        C666   1.410       .  A
C665        C670   1.403       .  A
C665        F683   1.356   1_455  S
C666        C671   1.498       .  S
C666        C667   1.407       .  A
C667        C668   1.392       .  A
C667        F672   1.346       .  S
C668        C669   1.405       .  A
C668        F684   1.358       .  S
C669        C670   1.410       .  A
C670        F673   1.355   1_455  S
C671        C674   1.410       .  A
C671        C678   1.415       .  A
C674        C675   1.394       .  A
C674        F679   1.356       .  S
C675        C676   1.397       .  A
C675        F681   1.352       .  S
C676        C677   1.402       .  A
C677        C678   1.404       .  A
C677        F680   1.357       .  S
C678        F682   1.357       .  S
C685        C686   1.413       .  A
C685        C690   1.402       .  A
C685        F703   1.348       .  S
C686        C691   1.504       .  S
C686        C687   1.410       .  A
C687        C688   1.397       .  A
C687        F692   1.356       .  S
C688        C689   1.405       .  A
C688        F704   1.357   1_545  S
C689        C690   1.399       .  A
C690        F693   1.358       .  S
C691        C694   1.411       .  A
C691        C698   1.412       .  A
C694        C695   1.401       .  A
C694        F699   1.350       .  S
C695        C696   1.402       .  A
C695        F701   1.357       .  S
C696        C697   1.403       .  A
C697        C698   1.401       .  A
C697        F700   1.357       .  S
C698        F702   1.354       .  S
C705        C706   1.403       .  A
C705        C710   1.388       .  A
C705        F723   1.348       .  S
C706        C711   1.494       .  S
C706        C707   1.410       .  A
C707        C708   1.405       .  A
C707        F712   1.357       .  S
C708        C709   1.412       .  A
C708        F724   1.357       .  S
C709        C710   1.407       .  A
C710        F713   1.359       .  S
C711        C714   1.410       .  A
C711        C718   1.410       .  A
C714        C715   1.393       .  A
C714        F719   1.354       .  S
C715        C716   1.399       .  A
C715        F721   1.359       .  S
C716        C717   1.404       .  A
C717        C718   1.402       .  A
C717        F720   1.357       .  S
C718        F722   1.355       .  S
C725        C726   1.410       .  A
C725        C730   1.408       .  A
C725        F743   1.355       .  S
C726        C731   1.495       .  S
C726        C727   1.403       .  A
C727        C728   1.395       .  A
C727        F732   1.354       .  S
C728        C729   1.405       .  A
C728        F744   1.359       .  S
C729        C730   1.408       .  A
C730        F733   1.357       .  S
C731        C734   1.406       .  A
C731        C738   1.405       .  A
C734        C735   1.393       .  A
C734        F739   1.347       .  S
C735        C736   1.400       .  A
C735        F741   1.358       .  S
C736        C737   1.408       .  A
C737        C738   1.408       .  A
C737        F740   1.356       .  S
C738        F742   1.352       .  S
C745        C746   1.401       .  A
C745        C750   1.389       .  A
C745        F763   1.350       .  S
C746        C751   1.493       .  S
C746        C747   1.414       .  A
C747        C748   1.408       .  A
C747        F752   1.357       .  S
C748        C749   1.405       .  A
C748        F764   1.357       .  S
C749        C750   1.399       .  A
C750        F753   1.352       .  S
C751        C754   1.411       .  A
C751        C758   1.409       .  A
C754        C755   1.394       .  A
C754        F759   1.357       .  S
C755        C756   1.403       .  A
C755        F761   1.358       .  S
C756        C757   1.399       .  A
C757        C758   1.398       .  A
C757        F760   1.357       .  S
C758        F762   1.348       .  S
O765       Ni771   1.935   1_556  S
O765        C786   1.283       .  A
O766       Ni789   1.977       .  S
O766        C775   1.318       .  A
O767       Ni771   1.818       .  S
O767       Ni789   1.877       .  S
O767       Ni783   1.861   1_554  S
O767        H790   0.962   1_554  S
C768        O785   1.311       .  A
C768        O777   1.300       .  A
C768        C892   1.521       .  S
O769       Ni788   1.940   1_554  S
O769        C775   1.290       .  A
O770       Ni788   1.950       .  S
O770        C772   1.277       .  A
Ni771       O774   1.973       .  S
Ni771       O776   1.916       .  S
C772        O782   1.269       .  A
C772        C900   1.500       .  S
O773       Ni789   1.941       .  S
O773        C779   1.292       .  A
O774        C779   1.297       .  A
C775       C1010   1.501       .  S
O776        C778   1.269       .  A
O777       Ni788   1.987       .  S
C778        O784   1.306       .  A
C778       C1025   1.516       .  S
C779       C1041   1.481       .  S
H780        O781   0.966   1_554  S
O781       Ni789   1.871   1_556  S
O781       Ni783   1.841       .  S
O781       Ni788   1.837       .  S
O782       Ni783   1.952       .  S
Ni783       O787   1.924       .  S
Ni783       O785   1.955       .  S
O784       Ni789   1.983       .  S
C786        O787   1.294       .  A
C786        C875   1.484       .  S
O791       Ni797   1.956       .  S
O791        C812   1.294       .  A
O792       Ni815   1.918       .  S
O792        C801   1.291       .  A
O793       Ni797   1.832       .  S
O793       Ni815   1.832       .  S
O793       Ni809   1.858       .  S
O793        H816   0.966       .  S
C794        O811   1.300       .  A
C794        O803   1.314       .  A
C794       C1034   1.497       .  S
O795       Ni814   1.976       .  S
O795        C801   1.295       .  A
O796       Ni814   1.947       .  S
O796        C798   1.272       .  A
Ni797       O800   1.985       .  S
Ni797       O802   1.946       .  S
C798        O808   1.284       .  A
C798       C1017   1.515       .  S
O799       Ni815   1.907       .  S
O799        C805   1.293       .  A
O800        C805   1.302       .  A
C801        C884   1.507       .  S
O802        C804   1.276       .  A
O803       Ni814   2.012       .  S
C804        O810   1.282       .  A
C804        C859   1.503       .  S
C805        C867   1.495       .  S
H806        O807   0.962       .  S
O807       Ni815   1.851       .  S
O807       Ni809   1.885       .  S
O807       Ni814   1.809       .  S
O808       Ni809   1.938       .  S
Ni809       O813   1.940       .  S
Ni809       O811   1.948       .  S
O810       Ni815   1.957       .  S
C812        O813   1.300       .  A
C812        C987   1.482       .  S
O817        C827   1.281       .  A
O818       Ni825   1.923   1_565  S
O818        C828   1.282       .  A
O819       Ni825   1.926   1_565  S
O819        C829   1.284       .  A
O820        C830   1.283       .  A
O821        C830   1.279       .  A
O822       Ni826   1.911       .  S
O822        C829   1.278       .  A
O823       Ni826   1.908       .  S
O823        C828   1.282       .  A
O824        C827   1.283       .  A
Ni825      Ni826   2.388   1_545  S
C827       C1493   1.484       .  S
C828       C1473   1.490       .  S
C829       C1513   1.471       .  S
C830       C1453   1.476       .  S
O831       Ni839   1.940       .  S
O831        C841   1.285       .  A
O832       Ni839   1.934       .  S
O832        C842   1.285       .  A
O833       Ni839   1.916       .  S
O833        C843   1.281       .  A
O834       Ni839   1.913       .  S
O834        C844   1.281       .  A
O835       Ni840   1.917       .  S
O835        C844   1.282       .  A
O836       Ni840   1.907       .  S
O836        C843   1.280       .  A
O837       Ni840   1.920       .  S
O837        C842   1.283       .  A
O838       Ni840   1.932       .  S
O838        C841   1.283       .  A
Ni839      Ni840   2.384       .  S
C841       C1413   1.492       .  S
C842       C1380   1.503       .  S
C843       C1433   1.481       .  S
C844       C1400   1.485       .  S
O845      Ni2381   1.916       .  S
O845        C855   1.283       .  A
O846       Ni853   1.906       .  S
O846        C856   1.279       .  A
O847       Ni853   1.913       .  S
O847        C857   1.279       .  A
O848      Ni2381   1.905       .  S
O848        C858   1.279       .  A
O849      Ni2382   1.909       .  S
O849        C858   1.280       .  A
O850       Ni854   1.913       .  S
O850        C857   1.281       .  A
O851       Ni854   1.922       .  S
O851        C856   1.283       .  A
O852      Ni2382   1.917       .  S
O852        C855   1.281       .  A
Ni853      O2373   1.908       .  S
Ni853      O2376   1.908       .  S
Ni853      Ni854   2.390       .  S
Ni854      O2377   1.911       .  S
Ni854      O2380   1.917       .  S
C855       C1313   1.484       .  S
C856       C1360   1.483       .  S
C857       C1293   1.464       .  S
C858       C1333   1.463       .  S
C859       C2388   1.450       .  A
C859        C864   1.416       .  A
C860        C921   1.503       .  S
C860       C2387   1.449   1_455  A
C860        C861   1.413       .  A
C861        C862   1.398       .  A
C861        H866   1.085       .  S
C862       C1440   1.478       .  S
C862       C2391   1.408   1_455  A
C863       C1500   1.490       .  S
C863       C2390   1.408       .  A
C863        C864   1.397       .  A
C864        H865   1.086       .  S
C867        C872   1.423       .  A
C868        C917   1.502       .  S
C868        C869   1.414       .  A
C869        C870   1.397       .  A
C869        H874   1.084       .  S
C870       C1340   1.468       .  S
C871       C1420   1.497       .  S
C871        C872   1.392       .  A
C872        H873   1.084       .  S
C875        C876   1.436       .  A
C875        C880   1.408       .  A
C876        C943   1.495       .  S
C876        C877   1.418       .  A
C877        C878   1.400       .  A
C877        H882   1.085       .  S
C878       C1480   1.483       .  S
C878        C879   1.406       .  A
C879       C1300   1.475       .  S
C879        C880   1.385       .  A
C880        H881   1.085       .  S
C883        C920   1.507       .  S
C883        C884   1.445       .  A
C883        C888   1.417       .  A
C884        C885   1.423       .  A
C885        C886   1.395       .  A
C885        H890   1.084       .  S
C886       C1353   1.490       .  S
C886        C887   1.404       .  A
C887       C1520   1.479       .  S
C887        C888   1.393       .  A
C888        H889   1.084       .  S
C891        C946   1.515       .  S
C891        C896   1.415       .  A
C892        C893   1.422       .  A
C893        C894   1.390       .  A
C893        H898   1.084       .  S
C894       C1393   1.493       .  S
C895       C1320   1.485       .  S
C895        C896   1.400       .  A
C896        H897   1.086       .  S
C899        C947   1.535       .  S
C899       C2428   1.456   1_455  A
C899        C904   1.432       .  A
C900       C2427   1.457       .  A
C900        C901   1.413       .  A
C901        C902   1.393       .  A
C901        H906   1.086       .  S
C902       C1460   1.483       .  S
C902       C2431   1.404       .  A
C903       C1373   1.499       .  S
C903       C2430   1.406   1_455  A
C903        C904   1.409       .  A
C904        H905   1.083       .  S
O907       Ni913   1.968       .  S
O907        C928   1.292       .  A
O908       Ni931   1.940       .  S
O908        C917   1.298       .  A
O909       Ni913   1.815       .  S
O909       Ni931   1.884       .  S
O909       Ni925   1.863       .  S
O909        H932   0.962       .  S
C910        O927   1.302       .  A
C910        O919   1.304       .  A
C910        C988   1.505       .  S
O911       Ni930   1.964       .  S
O911        C917   1.296       .  A
O912       Ni930   1.938       .  S
O912        C914   1.275       .  A
Ni913       O916   2.015       .  S
Ni913       O918   1.946       .  S
C914        O924   1.289       .  A
C914       C1033   1.502       .  S
O915       Ni931   1.953       .  S
O915        C921   1.303       .  A
O916        C921   1.314       .  A
O918        C920   1.270       .  A
O919       Ni930   1.988       .  S
C920        O926   1.277       .  A
H922        O923   0.966       .  S
O923       Ni931   1.863       .  S
O923       Ni925   1.840       .  S
O923       Ni930   1.826       .  S
O924       Ni925   1.971       .  S
Ni925       O929   1.948       .  S
Ni925       O927   1.941       .  S
O926       Ni931   1.923       .  S
C928        O929   1.304       .  A
C928       C1018   1.516       .  S
O933       Ni939   1.977   1_554  S
O933        C954   1.303       .  A
O934       Ni957   1.921       .  S
O934        C943   1.290       .  A
O935       Ni939   1.832       .  S
O935       Ni957   1.845       .  S
O935       Ni951   1.877   1_556  S
O935        H958   0.966       .  S
C936        O953   1.290       .  A
C936        O945   1.311       .  A
C936       C1009   1.503       .  S
O937       Ni956   1.971   1_556  S
O937        C943   1.297       .  A
O938       Ni956   1.946       .  S
O938        C940   1.274       .  A
Ni939       O942   2.011       .  S
Ni939       O944   1.972       .  S
C940        O950   1.295       .  A
C940       C1026   1.525       .  S
O941       Ni957   1.958       .  S
O941        C947   1.306       .  A
O942        C947   1.309       .  A
O944        C946   1.282       .  A
O945       Ni956   2.016       .  S
C946        O952   1.272       .  A
H948        O949   0.961   1_556  S
O949       Ni957   1.869   1_554  S
O949       Ni951   1.873       .  S
O949       Ni956   1.808       .  S
O950       Ni951   1.970       .  S
Ni951       O955   1.942       .  S
Ni951       O953   1.938       .  S
O952       Ni957   1.955       .  S
C954        O955   1.302       .  A
C954       C1042   1.509       .  S
O959      Ni2495   1.925       .  S
O959        C969   1.283       .  A
O960       Ni967   1.919       .  S
O960        C970   1.283       .  A
O961       Ni967   1.904       .  S
O961        C971   1.277       .  A
O962      Ni2495   1.907       .  S
O962        C972   1.279       .  A
O963      Ni2496   1.931       .  S
O963        C972   1.286       .  A
O964       Ni968   1.921       .  S
O964        C971   1.282       .  A
O965       Ni968   1.882       .  S
O965        C970   1.274       .  A
O966      Ni2496   1.904       .  S
O966        C969   1.277       .  A
Ni967      O2487   1.927   1_455  S
Ni967      O2490   1.904   1_455  S
Ni967      Ni968   2.392       .  S
Ni968      O2491   1.931   1_455  S
Ni968      O2494   1.902   1_455  S
C969       C1233   1.468       .  S
C970       C1253   1.459       .  S
C971       C1280   1.463       .  S
C972       C1220   1.492       .  S
O973       Ni981   1.910       .  S
O973        C983   1.278       .  A
O974       Ni981   1.923       .  S
O974        C984   1.281       .  A
O975       Ni981   1.921       .  S
O975        C985   1.283       .  A
O976       Ni981   1.922       .  S
O976        C986   1.283       .  A
O977       Ni982   1.920       .  S
O977        C986   1.281       .  A
O978       Ni982   1.909       .  S
O978        C985   1.281       .  A
O979       Ni982   1.923       .  S
O979        C984   1.281       .  A
O980       Ni982   1.916       .  S
O980        C983   1.281       .  A
Ni981      Ni982   2.388       .  S
C983       C1180   1.463       .  S
C984       C1160   1.473       .  S
C985       C1140   1.488       .  S
C986       C1200   1.488       .  S
C987        C992   1.414       .  A
C988        C989   1.415       .  A
C989        C990   1.404       .  A
C989        H994   1.084       .  S
C990       C1173   1.484       .  S
C991       C1213   1.493       .  S
C991        C992   1.393       .  A
C992        H993   1.085       .  S
O995       C1005   1.282       .  A
O996      Ni1003   1.919       .  S
O996       C1006   1.283       .  A
O997      Ni1003   1.928       .  S
O997       C1007   1.283       .  A
O998       C1008   1.281       .  A
O999       C1008   1.284       .  A
O1000     Ni1004   1.927       .  S
O1000      C1007   1.285       .  A
O1001     Ni1004   1.915       .  S
O1001      C1006   1.280       .  A
O1002      C1005   1.281       .  A
Ni1003    Ni1004   2.386       .  S
C1005      C1060   1.475       .  S
C1006      C1113   1.481       .  S
C1007      C1093   1.498       .  S
C1008      C1080   1.485       .  S
C1009      C1014   1.414       .  A
C1010      C1011   1.414       .  A
C1011      C1012   1.393       .  A
C1011      H1016   1.084       .  S
C1012      C1240   1.480       .  S
C1013      C1193   1.490       .  S
C1013      C1014   1.398       .  A
C1014      H1015   1.082       .  S
C1017      C1018   1.453       .  A
C1017      C1022   1.427       .  A
C1018      C1019   1.408       .  A
C1019      C1020   1.393       .  A
C1019      H1024   1.084       .  S
C1020      C1260   1.476       .  S
C1020      C1021   1.410       .  A
C1021      C1100   1.509       .  S
C1021      C1022   1.405       .  A
C1022      H1023   1.083       .  S
C1025      C1026   1.463       .  A
C1025      C1030   1.411       .  A
C1026      C1027   1.414       .  A
C1027      C1028   1.400       .  A
C1027      H1032   1.081       .  S
C1028      C1273   1.493       .  S
C1028      C1029   1.412       .  A
C1029      C1120   1.489       .  S
C1029      C1030   1.397       .  A
C1030      H1031   1.084       .  S
C1033      C2562   1.454   1_455  A
C1033      C1038   1.410       .  A
C1034      C2561   1.450       .  A
C1034      C1035   1.416       .  A
C1035      C1036   1.399       .  A
C1035      H1040   1.085       .  S
C1036      C1133   1.494       .  S
C1036      C2565   1.409       .  A
C1037      C1053   1.483       .  S
C1037      C2564   1.410   1_455  A
C1037      C1038   1.393       .  A
C1038      H1039   1.085       .  S
C1041      C2570   1.434       .  A
C1041      C1046   1.408       .  A
C1042      C2569   1.434   1_455  A
C1042      C1043   1.426       .  A
C1043      C1044   1.406       .  A
C1043      H1048   1.084       .  S
C1044      C1073   1.495       .  S
C1044      C2573   1.409   1_455  A
C1045      C1153   1.481       .  S
C1045      C2572   1.409       .  A
C1045      C1046   1.392       .  A
C1046      H1047   1.085       .  S
C1049      C1050   1.413       .  A
C1049      C1054   1.390       .  A
C1049      F1067   1.358       .  S
C1050      C1055   1.492       .  S
C1050      C1051   1.409       .  A
C1051      C1052   1.400       .  A
C1051      F1056   1.350       .  S
C1052      C1053   1.403       .  A
C1052      F2596   1.357       .  S
C1053      C1054   1.402       .  A
C1054      F1057   1.358       .  S
C1055      C1058   1.403       .  A
C1055      C1062   1.418       .  A
C1058      C1059   1.388       .  A
C1058      F1063   1.358       .  S
C1059      C1060   1.400       .  A
C1059      F1065   1.349   1_565  S
C1060      C1061   1.403       .  A
C1061      C1062   1.411       .  A
C1061      F1064   1.357       .  S
C1062      F1066   1.356       .  S
F1068      C2580   1.357       .  S
C1069      C1070   1.416       .  A
C1069      C1074   1.402       .  A
C1069      F1087   1.353       .  S
C1070      C1075   1.515       .  S
C1070      C1071   1.415       .  A
C1071      C1072   1.407       .  A
C1071      F1076   1.357       .  S
C1072      C1073   1.404       .  A
C1072      F1088   1.358       .  S
C1073      C1074   1.402       .  A
C1074      F1077   1.358       .  S
C1075      C1078   1.410       .  A
C1075      C1082   1.414       .  A
C1078      C1079   1.402       .  A
C1078      F1083   1.343       .  S
C1079      C1080   1.402       .  A
C1079      F1085   1.358       .  S
C1080      C1081   1.407       .  A
C1081      C1082   1.403       .  A
C1081      F1084   1.358       .  S
C1082      F1086   1.353       .  S
C1089      C1090   1.407       .  A
C1089      C1094   1.404       .  A
C1089      F1107   1.350       .  S
C1090      C1095   1.507       .  S
C1090      C1091   1.408       .  A
C1091      C1092   1.408       .  A
C1091      F1096   1.354       .  S
C1092      C1093   1.415       .  A
C1092      F1108   1.358       .  S
C1093      C1094   1.408       .  A
C1094      F1097   1.358       .  S
C1095      C1098   1.410       .  A
C1095      C1102   1.408       .  A
C1098      C1099   1.405       .  A
C1098      F1103   1.358       .  S
C1099      C1100   1.411       .  A
C1099      F1105   1.357       .  S
C1100      C1101   1.406       .  A
C1101      C1102   1.406       .  A
C1101      F1104   1.355       .  S
C1102      F1106   1.350       .  S
C1109      C1110   1.408       .  A
C1109      C1114   1.398       .  A
C1109      F1127   1.358       .  S
C1110      C1115   1.497       .  S
C1110      C1111   1.410       .  A
C1111      C1112   1.402       .  A
C1111      F1116   1.350       .  S
C1112      C1113   1.404       .  A
C1112      F1128   1.357       .  S
C1113      C1114   1.409       .  A
C1114      F1117   1.358       .  S
C1115      C1118   1.410       .  A
C1115      C1122   1.408       .  A
C1118      C1119   1.404       .  A
C1118      F1123   1.357       .  S
C1119      C1120   1.409       .  A
C1119      F1125   1.358       .  S
C1120      C1121   1.400       .  A
C1121      C1122   1.394       .  A
C1121      F1124   1.358       .  S
C1122      F1126   1.348       .  S
C1129      C1130   1.397       .  A
C1129      C1134   1.394       .  A
C1129      F1147   1.350       .  S
C1130      C1135   1.485       .  S
C1130      C1131   1.406       .  A
C1131      C1132   1.409       .  A
C1131      F1136   1.356       .  S
C1132      C1133   1.411       .  A
C1132      F1148   1.357       .  S
C1133      C1134   1.406       .  A
C1134      F1137   1.358       .  S
C1135      C1138   1.400       .  A
C1135      C1142   1.401       .  A
C1138      C1139   1.402       .  A
C1138      F1143   1.351       .  S
C1139      C1140   1.413       .  A
C1139      F1145   1.356       .  S
C1140      C1141   1.409       .  A
C1141      C1142   1.397       .  A
C1141      F1144   1.356       .  S
C1142      F1146   1.349       .  S
C1149      C1150   1.416       .  A
C1149      C1154   1.395       .  A
C1149      F1167   1.357       .  S
C1150      C1155   1.495       .  S
C1150      C1151   1.406       .  A
C1151      C1152   1.401       .  A
C1151      F1156   1.353       .  S
C1152      C1153   1.402       .  A
C1152      F1168   1.356       .  S
C1153      C1154   1.400       .  A
C1154      F2685   1.359       .  S
C1155      C1158   1.397       .  A
C1155      C1162   1.422       .  A
F1157      C2682   1.358       .  S
C1158      C1159   1.382       .  A
C1158      F1163   1.355       .  S
C1159      C1160   1.392       .  A
C1159      F1165   1.336       .  S
C1160      C1161   1.399       .  A
C1161      C1162   1.411       .  A
C1161      F1164   1.357       .  S
C1162      F1166   1.352       .  S
C1169      C1170   1.408       .  A
C1169      C1174   1.396       .  A
C1169      F1187   1.355   1_565  S
C1170      C1175   1.498       .  S
C1170      C1171   1.413       .  A
C1171      C1172   1.396       .  A
C1171      F1176   1.347       .  S
C1172      C1173   1.398       .  A
C1172      F1188   1.358       .  S
C1173      C1174   1.405       .  A
C1175      C1178   1.411       .  A
C1175      C1182   1.416       .  A
C1178      C1179   1.390       .  A
C1178      F1183   1.357       .  S
C1179      C1180   1.400       .  A
C1179      F1185   1.354       .  S
C1180      C1181   1.396       .  A
C1181      C1182   1.399       .  A
C1181      F1184   1.357       .  S
C1182      F1186   1.351       .  S
C1189      C1190   1.413       .  A
C1189      C1194   1.404       .  A
C1189      F1207   1.354       .  S
C1190      C1195   1.500       .  S
C1190      C1191   1.411       .  A
C1191      C1192   1.398       .  A
C1191      F1196   1.357       .  S
C1192      C1193   1.403       .  A
C1192      F1208   1.355       .  S
C1193      C1194   1.402       .  A
C1194      F1197   1.357       .  S
C1195      C1198   1.408       .  A
C1195      C1202   1.404       .  A
C1198      C1199   1.400       .  A
C1198      F1203   1.352       .  S
C1199      C1200   1.410       .  A
C1199      F1205   1.359       .  S
C1200      C1201   1.405       .  A
C1201      C1202   1.401       .  A
C1201      F1204   1.357       .  S
C1202      F1206   1.346       .  S
C1209      C1210   1.415       .  A
C1209      C1214   1.400       .  A
C1209      F1227   1.349       .  S
C1210      C1215   1.513       .  S
C1210      C1211   1.414       .  A
C1211      C1212   1.405       .  A
C1211      F1216   1.357       .  S
C1212      C1213   1.406       .  A
C1212      F1228   1.357       .  S
C1213      C1214   1.398       .  A
C1214      F1217   1.357       .  S
C1215      C1218   1.404       .  A
C1215      C1222   1.409       .  A
C1218      C1219   1.400       .  A
C1218      F1223   1.349       .  S
C1219      C1220   1.413       .  A
C1219      F1225   1.358       .  S
C1220      C1221   1.404       .  A
C1221      C1222   1.405       .  A
C1221      F1224   1.355       .  S
C1222      F1226   1.344       .  S
C1229      C1230   1.423       .  A
C1229      C1234   1.404       .  A
C1229      F1247   1.355       .  S
C1230      C1235   1.505       .  S
C1230      C1231   1.409       .  A
C1231      C1232   1.391       .  A
C1231      F1236   1.355       .  S
C1232      C1233   1.400       .  A
C1232      F1248   1.358       .  S
C1233      C1234   1.397       .  A
C1234      F1237   1.357       .  S
C1235      C1238   1.412       .  A
C1235      C1242   1.418       .  A
C1238      C1239   1.402       .  A
C1238      F1243   1.350       .  S
C1239      C1240   1.398       .  A
C1239      F1245   1.357       .  S
C1240      C1241   1.399       .  A
C1241      C1242   1.392       .  A
C1249      C1250   1.404       .  A
C1249      C1254   1.395       .  A
C1249      F1267   1.347       .  S
C1250      C1255   1.464       .  S
C1250      C1251   1.396       .  A
C1251      C1252   1.386       .  A
C1251      F1256   1.359       .  S
C1252      C1253   1.411       .  A
C1252      F1268   1.358       .  S
C1253      C1254   1.396       .  A
C1254      F1257   1.356       .  S
C1255      C1258   1.404       .  A
C1255      C1262   1.398       .  A
C1258      C1259   1.397       .  A
C1258      F1263   1.356       .  S
C1259      C1260   1.406       .  A
C1259      F1265   1.358       .  S
C1260      C1261   1.402       .  A
C1261      C1262   1.389       .  A
C1261      F1264   1.357       .  S
C1262      F1266   1.358       .  S
C1269      C1270   1.409       .  A
C1269      C1274   1.395       .  A
C1269      F1287   1.356       .  S
C1270      C1275   1.497       .  S
C1270      C1271   1.414       .  A
C1271      C1272   1.399       .  A
C1271      F1276   1.355       .  S
C1272      C1273   1.403       .  A
C1272      F1288   1.357       .  S
C1273      C1274   1.407       .  A
C1274      F1277   1.357       .  S
C1275      C1278   1.415       .  A
C1275      C1282   1.409       .  A
C1278      C1279   1.402       .  A
C1278      F1283   1.347       .  S
C1279      C1280   1.397       .  A
C1279      F1285   1.357       .  S
C1280      C1281   1.396       .  A
C1281      C1282   1.390       .  A
C1281      F1284   1.356       .  S
C1282      F1286   1.356       .  S
C1289      C1290   1.410       .  A
C1289      C1294   1.402       .  A
C1289      F1307   1.354       .  S
C1290      C1295   1.478       .  S
C1290      C1291   1.400       .  A
C1291      C1292   1.389       .  A
C1291      F1296   1.358       .  S
C1292      C1293   1.401       .  A
C1292      F1308   1.354       .  S
C1293      C1294   1.402       .  A
C1294      F1297   1.357       .  S
C1295      C1298   1.404       .  A
C1295      C1302   1.408       .  A
C1298      C1299   1.395       .  A
C1298      F1303   1.352       .  S
C1299      C1300   1.403       .  A
C1299      F1305   1.358       .  S
C1300      C1301   1.401       .  A
C1301      C1302   1.395       .  A
C1301      F1304   1.358       .  S
C1302      F1306   1.358       .  S
C1309      C1310   1.391       .  A
C1309      C1314   1.399       .  A
C1309      F1327   1.346       .  S
C1310      C1315   1.481       .  S
C1310      C1311   1.400       .  A
C1311      C1312   1.397       .  A
C1311      F1316   1.346   1_565  S
C1312      C1313   1.407       .  A
C1312      F1328   1.357       .  S
C1313      C1314   1.412       .  A
C1314      F1317   1.358       .  S
C1315      C1318   1.406       .  A
C1315      C1322   1.404       .  A
C1318      C1319   1.401       .  A
C1318      F1323   1.353       .  S
C1319      C1320   1.407       .  A
C1320      C1321   1.405       .  A
C1321      C1322   1.397       .  A
C1321      F1324   1.357       .  S
C1322      F1326   1.357       .  S
C1329      C1330   1.407       .  A
C1329      C1334   1.388       .  A
C1329      F1347   1.356       .  S
C1330      C1335   1.483       .  S
C1330      C1331   1.409       .  A
C1331      C1332   1.398       .  A
C1331      F1336   1.354       .  S
C1332      C1333   1.402       .  A
C1332      F1348   1.357       .  S
C1333      C1334   1.402       .  A
C1334      F1337   1.358       .  S
C1335      C1338   1.405       .  A
C1335      C1342   1.410       .  A
C1338      C1339   1.394       .  A
C1338      F1343   1.353       .  S
C1339      C1340   1.402       .  A
C1339      F1345   1.358       .  S
C1340      C1341   1.397       .  A
C1341      C1342   1.394       .  A
C1341      F1344   1.358       .  S
C1342      F1346   1.358       .  S
C1349      C1350   1.408       .  A
C1349      C1354   1.404       .  A
C1349      F1367   1.357       .  S
C1350      C1355   1.486       .  S
C1350      C1351   1.399       .  A
C1351      C1352   1.399       .  A
C1351      F1356   1.353       .  S
C1352      C1353   1.407       .  A
C1352      F1368   1.358       .  S
C1353      C1354   1.406       .  A
C1354      F1357   1.357       .  S
C1355      C1358   1.402       .  A
C1355      C1362   1.407       .  A
C1358      C1359   1.395       .  A
C1358      F1363   1.353       .  S
C1359      C1360   1.411       .  A
C1359      F1365   1.358       .  S
C1360      C1361   1.407       .  A
C1361      C1362   1.400       .  A
C1361      F1364   1.358       .  S
C1362      F1366   1.352       .  S
C1369      C1370   1.408       .  A
C1369      C1374   1.412       .  A
C1369      F1387   1.356       .  S
C1370      C1375   1.501       .  S
C1370      C1371   1.406       .  A
C1371      C1372   1.399       .  A
C1371      F1376   1.350       .  S
C1372      C1373   1.402       .  A
C1372      F1388   1.358       .  S
C1373      C1374   1.412       .  A
C1374      F2905   1.357       .  S
C1375      C1378   1.408       .  A
C1375      C1382   1.399       .  A
F1377      C2902   1.357       .  S
C1378      C1379   1.411       .  A
C1378      F1383   1.353   1_455  S
C1379      C1380   1.415       .  A
C1379      F1385   1.356   1_455  S
C1380      C1381   1.412       .  A
C1381      C1382   1.398       .  A
C1381      F1384   1.358       .  S
C1382      F1386   1.347       .  S
C1389      C1390   1.412       .  A
C1389      C1394   1.408       .  A
C1389      F1407   1.356       .  S
C1390      C1395   1.504       .  S
C1390      C1391   1.406       .  A
C1391      C1392   1.396       .  A
C1391      F1396   1.347       .  S
C1392      C1393   1.399       .  A
C1393      C1394   1.406       .  A
C1394      F1397   1.357       .  S
C1395      C1398   1.416       .  A
C1395      C1402   1.409       .  A
C1398      C1399   1.401       .  A
C1398      F1403   1.350       .  S
C1399      C1400   1.403       .  A
C1399      F1405   1.358       .  S
C1400      C1401   1.412       .  A
C1401      C1402   1.400       .  A
C1401      F1404   1.358       .  S
C1402      F1406   1.358       .  S
C1409      C1410   1.409       .  A
C1409      C1414   1.412       .  A
C1409      F1427   1.352       .  S
C1410      C1415   1.496       .  S
C1410      C1411   1.399       .  A
C1411      C1412   1.403       .  A
C1411      F1416   1.355       .  S
C1412      C1413   1.410       .  A
C1412      F1428   1.355       .  S
C1413      C1414   1.406       .  A
C1414      F1417   1.357       .  S
C1415      C1418   1.405       .  A
C1415      C1422   1.408       .  A
C1418      C1419   1.403       .  A
C1418      F1423   1.357       .  S
C1419      C1420   1.408       .  A
C1420      C1421   1.401       .  A
C1421      C1422   1.404       .  A
C1421      F1424   1.353       .  S
C1422      F1426   1.350       .  S
C1429      C1430   1.410       .  A
C1429      C1434   1.400       .  A
C1429      F1447   1.356   1_455  S
C1430      C1435   1.498       .  S
C1430      C1431   1.407       .  A
C1431      C1432   1.394       .  A
C1431      F1436   1.347       .  S
C1432      C1433   1.403       .  A
C1432      F1448   1.357       .  S
C1433      C1434   1.408       .  A
C1434      F1437   1.356   1_455  S
C1435      C1438   1.411       .  A
C1435      C1442   1.415       .  A
C1438      C1439   1.393       .  A
C1438      F1443   1.355       .  S
C1439      C1440   1.397       .  A
C1439      F1445   1.353       .  S
C1440      C1441   1.400       .  A
C1441      C1442   1.401       .  A
C1441      F1444   1.357       .  S
C1442      F1446   1.355       .  S
C1449      C1450   1.413       .  A
C1449      C1454   1.402       .  A
C1449      F1467   1.345       .  S
C1450      C1455   1.502       .  S
C1450      C1451   1.407       .  A
C1451      C1452   1.398       .  A
C1451      F1456   1.356       .  S
C1452      C1453   1.406       .  A
C1452      F1468   1.355       .  S
C1453      C1454   1.397       .  A
C1454      F1457   1.358       .  S
C1455      C1458   1.410       .  A
C1455      C1462   1.412       .  A
C1458      C1459   1.397       .  A
C1458      F1463   1.349       .  S
C1459      C1460   1.400       .  A
C1459      F1465   1.358       .  S
C1460      C1461   1.403       .  A
C1461      C1462   1.401       .  A
C1461      F1464   1.358       .  S
C1462      F1466   1.352       .  S
C1469      C1470   1.405       .  A
C1469      C1474   1.391       .  A
C1469      F1487   1.346       .  S
C1470      C1475   1.500       .  S
C1470      C1471   1.411       .  A
C1471      C1472   1.406       .  A
C1471      F1476   1.357       .  S
C1472      C1473   1.412       .  A
C1472      F1488   1.357       .  S
C1473      C1474   1.407       .  A
C1474      F1477   1.358       .  S
C1475      C1478   1.411       .  A
C1475      C1482   1.413       .  A
C1478      C1479   1.393       .  A
C1478      F1483   1.353       .  S
C1479      C1480   1.399       .  A
C1479      F1485   1.358       .  S
C1480      C1481   1.405       .  A
C1481      C1482   1.405       .  A
C1481      F1484   1.357       .  S
C1482      F1486   1.356       .  S
C1489      C1490   1.412       .  A
C1489      C1494   1.408       .  A
C1489      F1507   1.355       .  S
C1490      C1495   1.499       .  S
C1490      C1491   1.405       .  A
C1491      C1492   1.395       .  A
C1491      F1496   1.354       .  S
C1492      C1493   1.406       .  A
C1492      F1508   1.358       .  S
C1493      C1494   1.407       .  A
C1494      F1497   1.357       .  S
C1495      C1498   1.409       .  A
C1495      C1502   1.408       .  A
C1498      C1499   1.395       .  A
C1498      F1503   1.349       .  S
C1499      C1500   1.399       .  A
C1499      F1505   1.358       .  S
C1500      C1501   1.408       .  A
C1501      C1502   1.408       .  A
C1501      F1504   1.356       .  S
C1502      F1506   1.355       .  S
C1509      C1510   1.402       .  A
C1509      C1514   1.391       .  A
C1509      F1527   1.350       .  S
C1510      C1515   1.491       .  S
C1510      C1511   1.412       .  A
C1511      C1512   1.406       .  A
C1511      F1516   1.357       .  S
C1512      C1513   1.405       .  A
C1512      F1528   1.357       .  S
C1513      C1514   1.400       .  A
C1514      F1517   1.355   1_565  S
C1515      C1518   1.411       .  A
C1515      C1522   1.410       .  A
C1518      C1519   1.392       .  A
C1518      F1523   1.357       .  S
C1519      C1520   1.401       .  A
C1519      F1525   1.358       .  S
C1520      C1521   1.400       .  A
C1521      C1522   1.400       .  A
C1521      F1524   1.355       .  S
C1522      F1526   1.353       .  S
O1529     Ni1535   1.941   1_556  S
O1529      C1550   1.285       .  A
O1530     Ni1553   1.966       .  S
O1530      C1539   1.315       .  A
O1531     Ni1535   1.814       .  S
O1531     Ni1553   1.876       .  S
O1531     Ni1547   1.858   1_554  S
O1531      H1554   0.962   1_554  S
C1532      O1549   1.309       .  A
C1532      O1541   1.299       .  A
C1532      C1656   1.513       .  S
O1533     Ni1552   1.942   1_554  S
O1533      C1539   1.290       .  A
O1534     Ni1552   1.952       .  S
O1534      C1536   1.277       .  A
Ni1535     O1538   1.978       .  S
Ni1535     O1540   1.918       .  S
C1536      O1546   1.267       .  A
C1536      C1664   1.497       .  S
O1537     Ni1553   1.937       .  S
O1537      C1543   1.291       .  A
O1538      C1543   1.299       .  A
C1539      C1774   1.494       .  S
O1540      C1542   1.269       .  A
O1541     Ni1552   1.983       .  S
C1542      O1548   1.304       .  A
C1542      C1789   1.516       .  S
C1543      C1805   1.481       .  S
H1544      O1545   0.966       .  S
O1545     Ni1553   1.867   1_556  S
O1545     Ni1547   1.838       .  S
O1545     Ni1552   1.840       .  S
O1546     Ni1547   1.945       .  S
Ni1547     O1551   1.923       .  S
Ni1547     O1549   1.944       .  S
O1548     Ni1553   1.981       .  S
C1550      O1551   1.293       .  A
C1550      C1639   1.488       .  S
O1555     Ni1561   1.954       .  S
O1555      C1576   1.294       .  A
O1556     Ni1579   1.910       .  S
O1556      C1565   1.288       .  A
O1557     Ni1561   1.831       .  S
O1557     Ni1579   1.829       .  S
O1557     Ni1573   1.858       .  S
O1557      H1580   0.966       .  S
C1558      O1575   1.301       .  A
C1558      O1567   1.315       .  A
C1558      C1798   1.499       .  S
O1559     Ni1578   1.975       .  S
O1559      C1565   1.294       .  A
O1560     Ni1578   1.945       .  S
O1560      C1562   1.271       .  A
Ni1561     O1564   1.989       .  S
Ni1561     O1566   1.942       .  S
C1562      O1572   1.283       .  A
C1562      C1781   1.511       .  S
O1563     Ni1579   1.905       .  S
O1563      C1569   1.290       .  A
O1564      C1569   1.303       .  A
C1565      C1648   1.503       .  S
O1566      C1568   1.275       .  A
O1567     Ni1578   2.013       .  S
C1568      O1574   1.282       .  A
C1568      C1623   1.499       .  S
C1569      C1631   1.499       .  S
H1570      O1571   0.962       .  S
O1571     Ni1579   1.850       .  S
O1571     Ni1573   1.884       .  S
O1571     Ni1578   1.807       .  S
O1572     Ni1573   1.936       .  S
Ni1573     O1577   1.937       .  S
Ni1573     O1575   1.950       .  S
O1574     Ni1579   1.954       .  S
C1576      O1577   1.300       .  A
C1576      C1751   1.480       .  S
O1581     Ni2353   1.924       .  S
O1581      C1591   1.282       .  A
O1582     Ni1589   1.926       .  S
O1582      C1592   1.282       .  A
O1583     Ni1589   1.927       .  S
O1583      C1593   1.284       .  A
O1584     Ni2353   1.919       .  S
O1584      C1594   1.281       .  A
O1585     Ni2354   1.913   1_545  S
O1585      C1594   1.280       .  A
O1586     Ni1590   1.913       .  S
O1586      C1593   1.278       .  A
O1587     Ni1590   1.905       .  S
O1587      C1592   1.281       .  A
O1588     Ni2354   1.920   1_545  S
O1588      C1591   1.283       .  A
Ni1589     O2345   1.920       .  S
Ni1589     O2348   1.923       .  S
Ni1589    Ni1590   2.388       .  S
Ni1590     O2349   1.915       .  S
Ni1590     O2352   1.918       .  S
C1591      C2257   1.486       .  S
C1592      C2237   1.491       .  S
C1593      C2277   1.473       .  S
C1594      C2217   1.472       .  S
O1595     Ni1603   1.943       .  S
O1595      C1605   1.286       .  A
O1596     Ni1603   1.934       .  S
O1596      C1606   1.285       .  A
O1597     Ni1603   1.910       .  S
O1597      C1607   1.280       .  A
O1598     Ni1603   1.911       .  S
O1598      C1608   1.280       .  A
O1599     Ni1604   1.916       .  S
O1599      C1608   1.282       .  A
O1600     Ni1604   1.907       .  S
O1600      C1607   1.281       .  A
O1601     Ni1604   1.914       .  S
O1601      C1606   1.281       .  A
O1602     Ni1604   1.926       .  S
O1602      C1605   1.282       .  A
Ni1603    Ni1604   2.384       .  S
C1605      C2177   1.492       .  S
C1606      C2144   1.499       .  S
C1607      C2197   1.479       .  S
C1608      C2164   1.484       .  S
O1609      C1619   1.281       .  A
O1610     Ni1617   1.910   1_655  S
O1610      C1620   1.280       .  A
O1611     Ni1617   1.915   1_655  S
O1611      C1621   1.280       .  A
O1612      C1622   1.279       .  A
O1613      C1622   1.280       .  A
O1614     Ni1618   1.912   1_655  S
O1614      C1621   1.280       .  A
O1615     Ni1618   1.921   1_655  S
O1615      C1620   1.284       .  A
O1616      C1619   1.282       .  A
Ni1617    Ni1618   2.390       .  S
C1619      C2077   1.481       .  S
C1620      C2124   1.484       .  S
C1621      C2057   1.465       .  S
C1622      C2097   1.463       .  S
C1623      C1628   1.414       .  A
C1624      C1685   1.504       .  S
C1624      C1625   1.414       .  A
C1625      C1626   1.398       .  A
C1625      H1630   1.085       .  S
C1626      C2204   1.483       .  S
C1627      C2264   1.488       .  S
C1627      C1628   1.393       .  A
C1628      H1629   1.086       .  S
C1631      C2396   1.433   1_545  A
C1631      C1636   1.425       .  A
C1632      C1681   1.509       .  S
C1632      C2395   1.434       .  A
C1632      C1633   1.414       .  A
C1633      C1634   1.399       .  A
C1633      H1638   1.084       .  S
C1634      C2104   1.470       .  S
C1634      C2399   1.406       .  A
C1635      C2184   1.502       .  S
C1635      C2398   1.406   1_545  A
C1635      C1636   1.395       .  A
C1636      H1637   1.083       .  S
C1639      C1640   1.436       .  A
C1639      C1644   1.411       .  A
C1640      C1707   1.496       .  S
C1640      C1641   1.417       .  A
C1641      C1642   1.399       .  A
C1641      H1646   1.085       .  S
C1642      C2244   1.483       .  S
C1642      C1643   1.406       .  A
C1643      C2064   1.479       .  S
C1643      C1644   1.389       .  A
C1644      H1645   1.085       .  S
C1647      C1684   1.500       .  S
C1647      C1648   1.442       .  A
C1647      C1652   1.416       .  A
C1648      C1649   1.420       .  A
C1649      C1650   1.393       .  A
C1649      H1654   1.084       .  S
C1650      C2117   1.486       .  S
C1650      C1651   1.403       .  A
C1651      C2284   1.476       .  S
C1651      C1652   1.389       .  A
C1652      H1653   1.084       .  S
C1655      C1710   1.519       .  S
C1655      C2420   1.464       .  A
C1655      C1660   1.416       .  A
C1656      C2419   1.464   1_545  A
C1656      C1657   1.422       .  A
C1657      C1658   1.384       .  A
C1657      H1662   1.084       .  S
C1658      C2157   1.492       .  S
C1658      C2423   1.405   1_545  A
C1659      C2084   1.483       .  S
C1659      C2422   1.405       .  A
C1659      C1660   1.401       .  A
C1660      H1661   1.086       .  S
C1663      C1711   1.530       .  S
C1663      C1668   1.428       .  A
C1664      C1665   1.414       .  A
C1665      C1666   1.395       .  A
C1665      H1670   1.086       .  S
C1666      C2224   1.485       .  S
C1667      C2137   1.493       .  S
C1667      C1668   1.404       .  A
C1668      H1669   1.083       .  S
O1671     Ni1677   1.971       .  S
O1671      C1692   1.293       .  A
O1672     Ni1695   1.947       .  S
O1672      C1681   1.300       .  A
O1673     Ni1677   1.815       .  S
O1673     Ni1695   1.883       .  S
O1673     Ni1689   1.861       .  S
O1673      H1696   0.962       .  S
C1674      O1691   1.301       .  A
C1674      O1683   1.305       .  A
C1674      C1752   1.507       .  S
O1675     Ni1694   1.967       .  S
O1675      C1681   1.298       .  A
O1676     Ni1694   1.938       .  S
O1676      C1678   1.275       .  A
Ni1677     O1680   2.015       .  S
Ni1677     O1682   1.944       .  S
C1678      O1688   1.285       .  A
C1678      C1797   1.493       .  S
O1679     Ni1695   1.956       .  S
O1679      C1685   1.304       .  A
O1680      C1685   1.314       .  A
O1682      C1684   1.271       .  A
O1683     Ni1694   1.991       .  S
C1684      O1690   1.276       .  A
H1686      O1687   0.967       .  S
O1687     Ni1695   1.861       .  S
O1687     Ni1689   1.841       .  S
O1687     Ni1694   1.824       .  S
O1688     Ni1689   1.960       .  S
Ni1689     O1693   1.942       .  S
Ni1689     O1691   1.940       .  S
O1690     Ni1695   1.914       .  S
C1692      O1693   1.301       .  A
C1692      C1782   1.515       .  S
O1697     Ni1703   1.976   1_554  S
O1697      C1718   1.302       .  A
O1698     Ni1721   1.924       .  S
O1698      C1707   1.291       .  A
O1699     Ni1703   1.832       .  S
O1699     Ni1721   1.845       .  S
O1699     Ni1715   1.875   1_556  S
O1699      H1722   0.966       .  S
C1700      O1717   1.290       .  A
C1700      O1709   1.311       .  A
C1700      C1773   1.500       .  S
O1701     Ni1720   1.968   1_556  S
O1701      C1707   1.296       .  A
O1702     Ni1720   1.947       .  S
O1702      C1704   1.273       .  A
Ni1703     O1706   2.008       .  S
Ni1703     O1708   1.972       .  S
C1704      O1714   1.294       .  A
C1704      C1790   1.526       .  S
O1705     Ni1721   1.954       .  S
O1705      C1711   1.306       .  A
O1706      C1711   1.307       .  A
O1708      C1710   1.283       .  A
O1709     Ni1720   2.014       .  S
C1710      O1716   1.273       .  A
H1712      O1713   0.961       .  S
O1713     Ni1721   1.867       .  S
O1713     Ni1715   1.874   1_556  S
O1713     Ni1720   1.806   1_556  S
O1714     Ni1715   1.968       .  S
Ni1715     O1719   1.941       .  S
Ni1715     O1717   1.938       .  S
O1716     Ni1721   1.960       .  S
C1718      O1719   1.301       .  A
C1718      C1806   1.507       .  S
O1723      C1733   1.283       .  A
O1724     Ni1731   1.919       .  S
O1724      C1734   1.282       .  A
O1725     Ni1731   1.904       .  S
O1725      C1735   1.277       .  A
O1726      C1736   1.278       .  A
O1727      C1736   1.286       .  A
O1728     Ni1732   1.924       .  S
O1728      C1735   1.283       .  A
O1729     Ni1732   1.887       .  S
O1729      C1734   1.275       .  A
O1730      C1733   1.277       .  A
Ni1731    Ni1732   2.392       .  S
C1733      C1997   1.465       .  S
C1734      C2017   1.459       .  S
C1735      C2044   1.465       .  S
C1736      C1984   1.489       .  S
O1737     Ni1745   1.907       .  S
O1737      C1747   1.278       .  A
O1738     Ni1745   1.920       .  S
O1738      C1748   1.281       .  A
O1739     Ni1745   1.915       .  S
O1739      C1749   1.281       .  A
O1740     Ni1745   1.914       .  S
O1740      C1750   1.282       .  A
O1741     Ni1746   1.917       .  S
O1741      C1750   1.281       .  A
O1742     Ni1746   1.908       .  S
O1742      C1749   1.281       .  A
O1743     Ni1746   1.924       .  S
O1743      C1748   1.281       .  A
O1744     Ni1746   1.914       .  S
O1744      C1747   1.281       .  A
Ni1745    Ni1746   2.389       .  S
C1747      C1944   1.461       .  S
C1748      C1924   1.473       .  S
C1749      C1904   1.485       .  S
C1750      C1964   1.483       .  S
C1751      C2516   1.434   1_545  A
C1751      C1756   1.414       .  A
C1752      C2515   1.434       .  A
C1752      C1753   1.417       .  A
C1753      C1754   1.405       .  A
C1753      H1758   1.084       .  S
C1754      C1937   1.484       .  S
C1754      C2519   1.409       .  A
C1755      C1977   1.492       .  S
C1755      C2518   1.408   1_545  A
C1755      C1756   1.392       .  A
C1756      H1757   1.085       .  S
O1759     Ni2531   1.925       .  S
O1759      C1769   1.281       .  A
O1760     Ni1767   1.929       .  S
O1760      C1770   1.285       .  A
O1761     Ni1767   1.929       .  S
O1761      C1771   1.283       .  A
O1762     Ni2531   1.919       .  S
O1762      C1772   1.282       .  A
O1763     Ni2532   1.930       .  S
O1763      C1772   1.284       .  A
O1764     Ni1768   1.928   1_545  S
O1764      C1771   1.285       .  A
O1765     Ni1768   1.911   1_545  S
O1765      C1770   1.279       .  A
O1766     Ni2532   1.921       .  S
O1766      C1769   1.282       .  A
Ni1767     O2523   1.927   1_545  S
Ni1767     O2526   1.918   1_545  S
Ni1767    Ni1768   2.386   1_545  S
Ni1768     O2527   1.928       .  S
Ni1768     O2530   1.919       .  S
C1769      C1824   1.476       .  S
C1770      C1877   1.486       .  S
C1771      C1857   1.498       .  S
C1772      C1844   1.487       .  S
C1773      C2538   1.451       .  A
C1773      C1778   1.412       .  A
C1774      C2537   1.450   1_545  A
C1774      C1775   1.411       .  A
C1775      C1776   1.388       .  A
C1775      H1780   1.085       .  S
C1776      C2004   1.476       .  S
C1776      C2541   1.405   1_545  A
C1777      C1957   1.487       .  S
C1777      C2540   1.406       .  A
C1777      C1778   1.394       .  A
C1778      H1779   1.082       .  S
C1781      C1782   1.451       .  A
C1781      C1786   1.426       .  A
C1782      C1783   1.409       .  A
C1783      C1784   1.393       .  A
C1783      H1788   1.084       .  S
C1784      C2024   1.475       .  S
C1784      C1785   1.410       .  A
C1785      C1864   1.508       .  S
C1785      C1786   1.404       .  A
C1786      H1787   1.083       .  S
C1789      C1790   1.463       .  A
C1789      C1794   1.413       .  A
C1790      C1791   1.413       .  A
C1791      C1792   1.400       .  A
C1791      H1796   1.081       .  S
C1792      C2037   1.493       .  S
C1792      C1793   1.414       .  A
C1793      C1884   1.492       .  S
C1793      C1794   1.398       .  A
C1794      H1795   1.084       .  S
C1797      C1802   1.409       .  A
C1798      C1799   1.415       .  A
C1799      C1800   1.398       .  A
C1799      H1804   1.086       .  S
C1800      C1897   1.494       .  S
C1801      C1817   1.484       .  S
C1801      C1802   1.389       .  A
C1802      H1803   1.086       .  S
C1805      C1810   1.409       .  A
C1806      C1807   1.426       .  A
C1807      C1808   1.406       .  A
C1807      H1812   1.084       .  S
C1808      C1837   1.497       .  S
C1809      C1917   1.485       .  S
C1809      C1810   1.394       .  A
C1810      H1811   1.085       .  S
C1813      C1814   1.414       .  A
C1813      C1818   1.390       .  A
C1813      F1831   1.358       .  S
C1814      C1819   1.493       .  S
C1814      C1815   1.410       .  A
C1815      C1816   1.401       .  A
C1815      F1820   1.353       .  S
C1816      C1817   1.403       .  A
C1817      C1818   1.401       .  A
C1818      F1821   1.358       .  S
C1819      C1822   1.404       .  A
C1819      C1826   1.419       .  A
C1822      C1823   1.388       .  A
C1822      F1827   1.358       .  S
C1823      C1824   1.400       .  A
C1823      F1829   1.349       .  S
C1824      C1825   1.403       .  A
C1825      C1826   1.411       .  A
C1825      F1828   1.356       .  S
C1826      F1830   1.356       .  S
C1833      C1834   1.415       .  A
C1833      C1838   1.402       .  A
C1833      F1851   1.352       .  S
C1834      C1839   1.516       .  S
C1834      C1835   1.416       .  A
C1835      C1836   1.409       .  A
C1835      F1840   1.357       .  S
C1836      C1837   1.405       .  A
C1836      F1852   1.358       .  S
C1837      C1838   1.402       .  A
C1838      F1841   1.358       .  S
C1839      C1842   1.412       .  A
C1839      C1846   1.414       .  A
C1842      C1843   1.402       .  A
C1842      F1847   1.345       .  S
C1843      C1844   1.401       .  A
C1843      F1849   1.357       .  S
C1844      C1845   1.408       .  A
C1845      C1846   1.405       .  A
C1845      F1848   1.358       .  S
C1846      F1850   1.354       .  S
C1853      C1854   1.406       .  A
C1853      C1858   1.404       .  A
C1853      F1871   1.352       .  S
C1854      C1859   1.505       .  S
C1854      C1855   1.407       .  A
C1855      C1856   1.408       .  A
C1855      F1860   1.353       .  S
C1856      C1857   1.415       .  A
C1856      F1872   1.358       .  S
C1857      C1858   1.408       .  A
C1858      F1861   1.357       .  S
C1859      C1862   1.409       .  A
C1859      C1866   1.407       .  A
C1862      C1863   1.406       .  A
C1862      F1867   1.358       .  S
C1863      C1864   1.411       .  A
C1863      F1869   1.357       .  S
C1864      C1865   1.406       .  A
C1865      C1866   1.406       .  A
C1865      F1868   1.355       .  S
C1866      F1870   1.350       .  S
C1873      C1874   1.409       .  A
C1873      C1878   1.400       .  A
C1873      F1891   1.357       .  S
C1874      C1879   1.499       .  S
C1874      C1875   1.410       .  A
C1875      C1876   1.404       .  A
C1875      F1880   1.354       .  S
C1876      C1877   1.407       .  A
C1876      F1892   1.357       .  S
C1877      C1878   1.408       .  A
C1878      F1881   1.357       .  S
C1879      C1882   1.411       .  A
C1879      C1886   1.407       .  A
C1882      C1883   1.407       .  A
C1882      F1887   1.358       .  S
C1883      C1884   1.410       .  A
C1883      F1889   1.358       .  S
C1884      C1885   1.399       .  A
C1885      C1886   1.394       .  A
C1885      F1888   1.358       .  S
C1886      F1890   1.348       .  S
C1893      C1894   1.398       .  A
C1893      C1898   1.394       .  A
C1893      F1911   1.352       .  S
C1894      C1899   1.482       .  S
C1894      C1895   1.405       .  A
C1895      C1896   1.408       .  A
C1895      F1900   1.357       .  S
C1896      C1897   1.411       .  A
C1896      F1912   1.357       .  S
C1897      C1898   1.406       .  A
C1898      F1901   1.358       .  S
C1899      C1902   1.399       .  A
C1899      C1906   1.399       .  A
C1902      C1903   1.400       .  A
C1902      F1907   1.351       .  S
C1903      C1904   1.413       .  A
C1903      F1909   1.357       .  S
C1904      C1905   1.407       .  A
C1905      C1906   1.395       .  A
C1905      F1908   1.355       .  S
C1906      F1910   1.349   1_655  S
C1913      C1914   1.417       .  A
C1913      C1918   1.395       .  A
C1913      F1931   1.356       .  S
C1914      C1919   1.500       .  S
C1914      C1915   1.407       .  A
C1915      C1916   1.404       .  A
C1915      F1920   1.352       .  S
C1916      C1917   1.403       .  A
C1916      F1932   1.355       .  S
C1917      C1918   1.398       .  A
C1919      C1922   1.400       .  A
C1919      C1926   1.423       .  A
C1922      C1923   1.382       .  A
C1922      F1927   1.354       .  S
C1923      C1924   1.392       .  A
C1923      F1929   1.340       .  S
C1924      C1925   1.400       .  A
C1925      C1926   1.411       .  A
C1925      F1928   1.357       .  S
C1926      F1930   1.352       .  S
C1933      C1934   1.410       .  A
C1933      C1938   1.397       .  A
C1933      F1951   1.355       .  S
C1934      C1939   1.501       .  S
C1934      C1935   1.413       .  A
C1935      C1936   1.397       .  A
C1935      F1940   1.348       .  S
C1936      C1937   1.398       .  A
C1936      F1952   1.358       .  S
C1937      C1938   1.405       .  A
C1938      F2705   1.358       .  S
C1939      C1942   1.413       .  A
C1939      C1946   1.416       .  A
F1941      C2702   1.357   1_545  S
C1942      C1943   1.391       .  A
C1942      F1947   1.358       .  S
C1943      C1944   1.400       .  A
C1943      F1949   1.356       .  S
C1944      C1945   1.395       .  A
C1945      C1946   1.398       .  A
C1945      F1948   1.358       .  S
C1946      F1950   1.349       .  S
C1953      C1954   1.412       .  A
C1953      C1958   1.403       .  A
C1953      F1971   1.354       .  S
C1954      C1959   1.494       .  S
C1954      C1955   1.409       .  A
C1955      C1956   1.395       .  A
C1955      F1960   1.357       .  S
C1956      C1957   1.403       .  A
C1956      F1972   1.356       .  S
C1957      C1958   1.403       .  A
C1958      F1961   1.357       .  S
C1959      C1962   1.406       .  A
C1959      C1966   1.402       .  A
C1962      C1963   1.398       .  A
C1962      F1967   1.351       .  S
C1963      C1964   1.409       .  A
C1963      F1969   1.358       .  S
C1964      C1965   1.405       .  A
C1965      C1966   1.398       .  A
C1965      F1968   1.357       .  S
C1966      F1970   1.346       .  S
C1973      C1974   1.412       .  A
C1973      C1978   1.400       .  A
C1973      F1991   1.350       .  S
C1974      C1979   1.508       .  S
C1974      C1975   1.413       .  A
C1975      C1976   1.404       .  A
C1975      F1980   1.357       .  S
C1976      C1977   1.406       .  A
C1976      F1992   1.357       .  S
C1977      C1978   1.399       .  A
C1978      F1981   1.357       .  S
C1979      C1982   1.404       .  A
C1979      C1986   1.408       .  A
C1982      C1983   1.399       .  A
C1982      F1987   1.352       .  S
C1983      C1984   1.414       .  A
C1983      F1989   1.358       .  S
C1984      C1985   1.402       .  A
C1985      C1986   1.404       .  A
C1985      F1988   1.355       .  S
C1986      F1990   1.344       .  S
C1993      C1994   1.423       .  A
C1993      C1998   1.403       .  A
C1993      F2011   1.353       .  S
C1994      C1999   1.504       .  S
C1994      C1995   1.409       .  A
C1995      C1996   1.390       .  A
C1995      F2000   1.355       .  S
C1996      C1997   1.400       .  A
C1996      F2012   1.357   1_655  S
C1997      C1998   1.396       .  A
C1998      F2001   1.357       .  S
C1999      C2002   1.412       .  A
C1999      C2006   1.418       .  A
C2002      C2003   1.399       .  A
C2002      F2007   1.349       .  S
C2003      C2004   1.397       .  A
C2003      F2009   1.357       .  S
C2004      C2005   1.398       .  A
C2005      C2006   1.392       .  A
C2005      F2772   1.359       .  S
C2006      F2774   1.354       .  S
F2008      C2769   1.359       .  S
F2010      C2770   1.354       .  S
C2013      C2014   1.404       .  A
C2013      C2018   1.397       .  A
C2013      F2031   1.349       .  S
C2014      C2019   1.465       .  S
C2014      C2015   1.397       .  A
C2015      C2016   1.385       .  A
C2015      F2020   1.359       .  S
C2016      C2017   1.409       .  A
C2016      F2032   1.358       .  S
C2017      C2018   1.398       .  A
C2018      F2021   1.356       .  S
C2019      C2022   1.404       .  A
C2019      C2026   1.398       .  A
C2022      C2023   1.396       .  A
C2022      F2027   1.357       .  S
C2023      C2024   1.405       .  A
C2023      F2029   1.358       .  S
C2024      C2025   1.402       .  A
C2025      C2026   1.390       .  A
C2025      F2028   1.357       .  S
C2026      F2030   1.357       .  S
C2033      C2034   1.408       .  A
C2033      C2038   1.394       .  A
C2033      F2051   1.356       .  S
C2034      C2039   1.496       .  S
C2034      C2035   1.414       .  A
C2035      C2036   1.400       .  A
C2035      F2040   1.354       .  S
C2036      C2037   1.403       .  A
C2036      F2052   1.357       .  S
C2037      C2038   1.405       .  A
C2038      F2041   1.356       .  S
C2039      C2042   1.413       .  A
C2039      C2046   1.407       .  A
C2042      C2043   1.401       .  A
C2042      F2047   1.346       .  S
C2043      C2044   1.397       .  A
C2043      F2049   1.357       .  S
C2044      C2045   1.399       .  A
C2045      C2046   1.392       .  A
C2045      F2048   1.357       .  S
C2046      F2050   1.356       .  S
C2053      C2054   1.412       .  A
C2053      C2058   1.404       .  A
C2053      F2071   1.353       .  S
C2054      C2059   1.483       .  S
C2054      C2055   1.402       .  A
C2055      C2056   1.389       .  A
C2055      F2060   1.358       .  S
C2056      C2057   1.401       .  A
C2056      F2072   1.353       .  S
C2057      C2058   1.401       .  A
C2058      F2061   1.357       .  S
C2059      C2062   1.406       .  A
C2059      C2066   1.408       .  A
C2062      C2063   1.397       .  A
C2062      F2067   1.352       .  S
C2063      C2064   1.403       .  A
C2063      F2069   1.358       .  S
C2064      C2065   1.402       .  A
C2065      C2066   1.396       .  A
C2065      F2068   1.358       .  S
C2066      F2070   1.357       .  S
C2073      C2074   1.389       .  A
C2073      C2078   1.399       .  A
C2073      F2091   1.345       .  S
C2074      C2079   1.479       .  S
C2074      C2075   1.399       .  A
C2075      C2076   1.396       .  A
C2075      F2080   1.344       .  S
C2076      C2077   1.408       .  A
C2076      F2092   1.358       .  S
C2077      C2078   1.410       .  A
C2078      F2081   1.357       .  S
C2079      C2082   1.404       .  A
C2079      C2086   1.405       .  A
C2082      C2083   1.399       .  A
C2082      F2087   1.354       .  S
C2083      C2084   1.406       .  A
C2083      F2853   1.358       .  S
C2084      C2085   1.406       .  A
C2085      C2086   1.399       .  A
C2085      F2088   1.358       .  S
C2086      F2090   1.357       .  S
F2089      C2847   1.358       .  S
C2093      C2094   1.407       .  A
C2093      C2098   1.385       .  A
C2093      F2111   1.355       .  S
C2094      C2099   1.485       .  S
C2094      C2095   1.410       .  A
C2095      C2096   1.401       .  A
C2095      F2100   1.353       .  S
C2096      C2097   1.402       .  A
C2096      F2112   1.357       .  S
C2097      C2098   1.400       .  A
C2098      F2101   1.357       .  S
C2099      C2102   1.406       .  A
C2099      C2106   1.410       .  A
C2102      C2103   1.397       .  A
C2102      F2107   1.353       .  S
C2103      C2104   1.402       .  A
C2103      F2109   1.357       .  S
C2104      C2105   1.395       .  A
C2105      C2106   1.393       .  A
C2105      F2108   1.358       .  S
C2106      F2110   1.358       .  S
C2113      C2114   1.409       .  A
C2113      C2118   1.403       .  A
C2113      F2131   1.357       .  S
C2114      C2119   1.488       .  S
C2114      C2115   1.399       .  A
C2115      C2116   1.396       .  A
C2115      F2120   1.351       .  S
C2116      C2117   1.405       .  A
C2116      F2132   1.358       .  S
C2117      C2118   1.405       .  A
C2118      F2121   1.358       .  S
C2119      C2122   1.403       .  A
C2119      C2126   1.408       .  A
C2122      C2123   1.398       .  A
C2122      F2127   1.355       .  S
C2123      C2124   1.412       .  A
C2123      F2129   1.358       .  S
C2124      C2125   1.406       .  A
C2125      C2126   1.397       .  A
C2125      F2128   1.358       .  S
C2126      F2130   1.353       .  S
C2133      C2134   1.405       .  A
C2133      C2138   1.407       .  A
C2133      F2151   1.356       .  S
C2134      C2139   1.495       .  S
C2134      C2135   1.407       .  A
C2135      C2136   1.400       .  A
C2135      F2140   1.351       .  S
C2136      C2137   1.402       .  A
C2136      F2152   1.358       .  S
C2137      C2138   1.410       .  A
C2139      C2142   1.406       .  A
C2139      C2146   1.397       .  A
C2142      C2143   1.408       .  A
C2142      F2147   1.353       .  S
C2143      C2144   1.414       .  A
C2143      F2149   1.357       .  S
C2144      C2145   1.413       .  A
C2145      C2146   1.397       .  A
C2145      F2148   1.358       .  S
C2146      F2150   1.347       .  S
C2153      C2154   1.410       .  A
C2153      C2158   1.409       .  A
C2153      F2171   1.356       .  S
C2154      C2159   1.500       .  S
C2154      C2155   1.402       .  A
C2155      C2156   1.394       .  A
C2155      F2160   1.342       .  S
C2156      C2157   1.398       .  A
C2156      F2936   1.355       .  S
C2157      C2158   1.407       .  A
C2158      F2161   1.357       .  S
C2159      C2162   1.414       .  A
C2159      C2166   1.408       .  A
C2162      C2163   1.398       .  A
C2162      F2167   1.350       .  S
C2163      C2164   1.403       .  A
C2163      F2169   1.358       .  S
C2164      C2165   1.413       .  A
C2165      C2166   1.402       .  A
C2165      F2168   1.358       .  S
C2166      F2170   1.357       .  S
F2172      C2920   1.355       .  S
C2173      C2174   1.407       .  A
C2173      C2178   1.410       .  A
C2173      F2191   1.351       .  S
C2174      C2179   1.496       .  S
C2174      C2175   1.399       .  A
C2175      C2176   1.404       .  A
C2175      F2180   1.354       .  S
C2176      C2177   1.411       .  A
C2176      F2192   1.355       .  S
C2177      C2178   1.405       .  A
C2178      F2181   1.357       .  S
C2179      C2182   1.404       .  A
C2179      C2186   1.407       .  A
C2182      C2183   1.405       .  A
C2182      F2187   1.357       .  S
C2183      C2184   1.410       .  A
C2183      F2953   1.356   1_545  S
C2184      C2185   1.403       .  A
C2185      C2186   1.405       .  A
C2185      F2188   1.353       .  S
C2186      F2190   1.351       .  S
F2189      C2947   1.356       .  S
C2193      C2194   1.410       .  A
C2193      C2198   1.398       .  A
C2193      F2211   1.354       .  S
C2194      C2199   1.500       .  S
C2194      C2195   1.410       .  A
C2195      C2196   1.394       .  A
C2195      F2200   1.347       .  S
C2196      C2197   1.402       .  A
C2196      F2212   1.357       .  S
C2197      C2198   1.408       .  A
C2198      F2201   1.356       .  S
C2199      C2202   1.409       .  A
C2199      C2206   1.416       .  A
C2202      C2203   1.393       .  A
C2202      F2207   1.354       .  S
C2203      C2204   1.397       .  A
C2203      F2209   1.352       .  S
C2204      C2205   1.402       .  A
C2205      C2206   1.403       .  A
C2205      F2208   1.357       .  S
C2206      F2210   1.354       .  S
C2213      C2214   1.415       .  A
C2213      C2218   1.401       .  A
C2213      F2231   1.348       .  S
C2214      C2219   1.504       .  S
C2214      C2215   1.410       .  A
C2215      C2216   1.395       .  A
C2215      F2220   1.357       .  S
C2216      C2217   1.404       .  A
C2216      F2232   1.356   1_545  S
C2217      C2218   1.397       .  A
C2218      F2221   1.358       .  S
C2219      C2222   1.411       .  A
C2219      C2226   1.413       .  A
C2222      C2223   1.400       .  A
C2222      F2227   1.349       .  S
C2223      C2224   1.402       .  A
C2223      F2229   1.358       .  S
C2224      C2225   1.401       .  A
C2225      C2226   1.400       .  A
C2225      F2228   1.357       .  S
C2226      F2230   1.353       .  S
C2233      C2234   1.405       .  A
C2233      C2238   1.389       .  A
C2233      F2251   1.349       .  S
C2234      C2239   1.501       .  S
C2234      C2235   1.412       .  A
C2235      C2236   1.408       .  A
C2235      F2240   1.357       .  S
C2236      C2237   1.413       .  A
C2236      F2252   1.357       .  S
C2237      C2238   1.407       .  A
C2238      F2241   1.358       .  S
C2239      C2242   1.412       .  A
C2239      C2246   1.413       .  A
C2242      C2243   1.392       .  A
C2242      F2247   1.353       .  S
C2243      C2244   1.399       .  A
C2243      F2249   1.358       .  S
C2244      C2245   1.405       .  A
C2245      C2246   1.405       .  A
C2245      F2248   1.357       .  S
C2246      F2250   1.356       .  S
C2253      C2254   1.410       .  A
C2253      C2258   1.407       .  A
C2253      F2271   1.355       .  S
C2254      C2259   1.497       .  S
C2254      C2255   1.405       .  A
C2255      C2256   1.397       .  A
C2255      F2260   1.354       .  S
C2256      C2257   1.406       .  A
C2256      F2272   1.358       .  S
C2257      C2258   1.408       .  A
C2258      F2261   1.357       .  S
C2259      C2262   1.408       .  A
C2259      C2266   1.407       .  A
C2262      C2263   1.394       .  A
C2262      F2267   1.349       .  S
C2263      C2264   1.400       .  A
C2263      F2269   1.358       .  S
C2264      C2265   1.407       .  A
C2265      C2266   1.407       .  A
C2265      F2268   1.357       .  S
C2266      F2270   1.353       .  S
C2273      C2274   1.403       .  A
C2273      C2278   1.390       .  A
C2273      F2291   1.350       .  S
C2274      C2279   1.495       .  S
C2274      C2275   1.415       .  A
C2275      C2276   1.407       .  A
C2275      F2280   1.356       .  S
C2276      C2277   1.404       .  A
C2276      F2292   1.357       .  S
C2277      C2278   1.400       .  A
C2278      F2281   1.354       .  S
C2279      C2282   1.412       .  A
C2279      C2286   1.411       .  A
C2282      C2283   1.393       .  A
C2282      F2287   1.356       .  S
C2283      C2284   1.400       .  A
C2283      F2289   1.358       .  S
C2284      C2285   1.398       .  A
C2285      C2286   1.398       .  A
C2285      F2288   1.355       .  S
C2286      F2290   1.351       .  S
O2293     Ni2299   1.941   1_556  S
O2293      C2314   1.285       .  A
O2294     Ni2317   1.972       .  S
O2294      C2303   1.317       .  A
O2295     Ni2299   1.816       .  S
O2295     Ni2317   1.878       .  S
O2295     Ni2311   1.859   1_554  S
O2295      H2318   0.962   1_554  S
C2296      O2313   1.310       .  A
C2296      O2305   1.301       .  A
C2296      C2420   1.518       .  S
O2297     Ni2316   1.946   1_554  S
O2297      C2303   1.292       .  A
O2298     Ni2316   1.958       .  S
O2298      C2300   1.278       .  A
Ni2299     O2302   1.977       .  S
Ni2299     O2304   1.917       .  S
C2300      O2310   1.269       .  A
C2300      C2428   1.504       .  S
O2301     Ni2317   1.939       .  S
O2301      C2307   1.291       .  A
O2302      C2307   1.299       .  A
C2303      C2538   1.499       .  S
O2304      C2306   1.269       .  A
O2305     Ni2316   1.988       .  S
C2306      O2312   1.305       .  A
C2306      C2553   1.517       .  S
C2307      C2569   1.482       .  S
H2308      O2309   0.966       .  S
O2309     Ni2317   1.869   1_556  S
O2309     Ni2311   1.839       .  S
O2309     Ni2316   1.839       .  S
O2310     Ni2311   1.949       .  S
Ni2311     O2315   1.925       .  S
Ni2311     O2313   1.948       .  S
O2312     Ni2317   1.984       .  S
C2314      O2315   1.294       .  A
C2314      C2403   1.489       .  S
O2319     Ni2325   1.948       .  S
O2319      C2340   1.292       .  A
O2320     Ni2343   1.914       .  S
O2320      C2329   1.289       .  A
O2321     Ni2325   1.831       .  S
O2321     Ni2343   1.830       .  S
O2321     Ni2337   1.857       .  S
O2321      H2344   0.966       .  S
C2322      O2339   1.301       .  A
C2322      O2331   1.316       .  A
C2322      C2562   1.500       .  S
O2323     Ni2342   1.979       .  S
O2323      C2329   1.296       .  A
O2324     Ni2342   1.952       .  S
O2324      C2326   1.273       .  A
Ni2325     O2328   1.983       .  S
Ni2325     O2330   1.936       .  S
C2326      O2336   1.281       .  A
C2326      C2545   1.515       .  S
O2327     Ni2343   1.913       .  S
O2327      C2333   1.293       .  A
O2328      C2333   1.302       .  A
C2329      C2412   1.507       .  S
O2330      C2332   1.273       .  A
O2331     Ni2342   2.017       .  S
C2332      O2338   1.282       .  A
C2332      C2387   1.492       .  S
C2333      C2395   1.498       .  S
H2334      O2335   0.962       .  S
O2335     Ni2343   1.852       .  S
O2335     Ni2337   1.884       .  S
O2335     Ni2342   1.806       .  S
O2336     Ni2337   1.932       .  S
Ni2337     O2341   1.936       .  S
Ni2337     O2339   1.951       .  S
O2338     Ni2343   1.952       .  S
C2340      O2341   1.300       .  A
C2340      C2515   1.479       .  S
O2345      C2355   1.281       .  A
O2346     Ni2353   1.930   1_565  S
O2346      C2356   1.283       .  A
O2347     Ni2353   1.923   1_565  S
O2347      C2357   1.283       .  A
O2348      C2358   1.282       .  A
O2349      C2358   1.281       .  A
O2350     Ni2354   1.910       .  S
O2350      C2357   1.277       .  A
O2351     Ni2354   1.908       .  S
O2351      C2356   1.281       .  A
O2352      C2355   1.283       .  A
Ni2353    Ni2354   2.388   1_545  S
C2355      C3021   1.481       .  S
C2356      C3001   1.494       .  S
C2357      C3041   1.467       .  S
C2358      C2981   1.477       .  S
O2359     Ni2367   1.945       .  S
O2359      C2369   1.287       .  A
O2360     Ni2367   1.937       .  S
O2360      C2370   1.285       .  A
O2361     Ni2367   1.919       .  S
O2361      C2371   1.282       .  A
O2362     Ni2367   1.918       .  S
O2362      C2372   1.282       .  A
O2363     Ni2368   1.906       .  S
O2363      C2372   1.280       .  A
O2364     Ni2368   1.901       .  S
O2364      C2371   1.279       .  A
O2365     Ni2368   1.918       .  S
O2365      C2370   1.283       .  A
O2366     Ni2368   1.927       .  S
O2366      C2369   1.282       .  A
Ni2367    Ni2368   2.383       .  S
C2369      C2941   1.493       .  S
C2370      C2908   1.501       .  S
C2371      C2961   1.481       .  S
C2372      C2928   1.484       .  S
O2373      C2383   1.281       .  A
O2374     Ni2381   1.913   1_655  S
O2374      C2384   1.281       .  A
O2375     Ni2381   1.911   1_655  S
O2375      C2385   1.279       .  A
O2376      C2386   1.280       .  A
O2377      C2386   1.279       .  A
O2378     Ni2382   1.912   1_655  S
O2378      C2385   1.280       .  A
O2379     Ni2382   1.922   1_655  S
O2379      C2384   1.283       .  A
O2380      C2383   1.281       .  A
Ni2381    Ni2382   2.389       .  S
C2383      C2841   1.479       .  S
C2384      C2888   1.486       .  S
C2385      C2821   1.461       .  S
C2386      C2861   1.465       .  S
C2387      C2392   1.413       .  A
C2388      C2449   1.501       .  S
C2388      C2389   1.413       .  A
C2389      C2390   1.396       .  A
C2389      H2394   1.085       .  S
C2390      C2968   1.483       .  S
C2391      C3028   1.490       .  S
C2391      C2392   1.390       .  A
C2392      H2393   1.086       .  S
C2395      C2400   1.425       .  A
C2396      C2445   1.505       .  S
C2396      C2397   1.417       .  A
C2397      C2398   1.402       .  A
C2397      H2402   1.084       .  S
C2398      C2868   1.474       .  S
C2399      C2948   1.503       .  S
C2399      C2400   1.397       .  A
C2400      H2401   1.083       .  S
C2403      C2404   1.438       .  A
C2403      C2408   1.408       .  A
C2404      C2471   1.496       .  S
C2404      C2405   1.420       .  A
C2405      C2406   1.399       .  A
C2405      H2410   1.084       .  S
C2406      C3008   1.488       .  S
C2406      C2407   1.404       .  A
C2407      C2828   1.471       .  S
C2407      C2408   1.386       .  A
C2408      H2409   1.085       .  S
C2411      C2448   1.505       .  S
C2411      C2412   1.443       .  A
C2411      C2416   1.413       .  A
C2412      C2413   1.425       .  A
C2413      C2414   1.397       .  A
C2413      H2418   1.084       .  S
C2414      C2881   1.493       .  S
C2414      C2415   1.402       .  A
C2415      C3048   1.472       .  S
C2415      C2416   1.391       .  A
C2416      H2417   1.084       .  S
C2419      C2474   1.523       .  S
C2419      C2424   1.415       .  A
C2420      C2421   1.419       .  A
C2421      C2422   1.385       .  A
C2421      H2426   1.084       .  S
C2422      C2921   1.486       .  S
C2423      C2848   1.478       .  S
C2423      C2424   1.403       .  A
C2424      H2425   1.086       .  S
C2427      C2475   1.529       .  S
C2427      C2432   1.431       .  A
C2428      C2429   1.417       .  A
C2429      C2430   1.397       .  A
C2429      H2434   1.086       .  S
C2430      C2988   1.492       .  S
C2431      C2901   1.498       .  S
C2431      C2432   1.405       .  A
C2432      H2433   1.083       .  S
O2435     Ni2441   1.966       .  S
O2435      C2456   1.292       .  A
O2436     Ni2459   1.944       .  S
O2436      C2445   1.298       .  A
O2437     Ni2441   1.813       .  S
O2437     Ni2459   1.883       .  S
O2437     Ni2453   1.860       .  S
O2437      H2460   0.962       .  S
C2438      O2455   1.301       .  A
C2438      O2447   1.305       .  A
C2438      C2516   1.506       .  S
O2439     Ni2458   1.967       .  S
O2439      C2445   1.298       .  A
O2440     Ni2458   1.940       .  S
O2440      C2442   1.275       .  A
Ni2441     O2444   2.012       .  S
Ni2441     O2446   1.945       .  S
C2442      O2452   1.285       .  A
C2442      C2561   1.497       .  S
O2443     Ni2459   1.954       .  S
O2443      C2449   1.303       .  A
O2444      C2449   1.313       .  A
O2446      C2448   1.270       .  A
O2447     Ni2458   1.992       .  S
C2448      O2454   1.278       .  A
H2450      O2451   0.967       .  S
O2451     Ni2459   1.864       .  S
O2451     Ni2453   1.842       .  S
O2451     Ni2458   1.826       .  S
O2452     Ni2453   1.964       .  S
Ni2453     O2457   1.942       .  S
Ni2453     O2455   1.938       .  S
O2454     Ni2459   1.922       .  S
C2456      O2457   1.301       .  A
C2456      C2546   1.511       .  S
O2461     Ni2467   1.977   1_554  S
O2461      C2482   1.302       .  A
O2462     Ni2485   1.916       .  S
O2462      C2471   1.289       .  A
O2463     Ni2467   1.832       .  S
O2463     Ni2485   1.841       .  S
O2463     Ni2479   1.877   1_556  S
O2463      H2486   0.966       .  S
C2464      O2481   1.291       .  A
C2464      O2473   1.312       .  A
C2464      C2537   1.501       .  S
O2465     Ni2484   1.972   1_556  S
O2465      C2471   1.296       .  A
O2466     Ni2484   1.945       .  S
O2466      C2468   1.273       .  A
Ni2467     O2470   2.008       .  S
Ni2467     O2472   1.975       .  S
C2468      O2478   1.295       .  A
C2468      C2554   1.527       .  S
O2469     Ni2485   1.950       .  S
O2469      C2475   1.305       .  A
O2470      C2475   1.307       .  A
O2472      C2474   1.284       .  A
O2473     Ni2484   2.017       .  S
C2474      O2480   1.275       .  A
H2476      O2477   0.962       .  S
O2477     Ni2485   1.866       .  S
O2477     Ni2479   1.875   1_556  S
O2477     Ni2484   1.806   1_556  S
O2478     Ni2479   1.973       .  S
Ni2479     O2483   1.942       .  S
Ni2479     O2481   1.937       .  S
O2480     Ni2485   1.964       .  S
C2482      O2483   1.302       .  A
C2482      C2570   1.508       .  S
O2487      C2497   1.284       .  A
O2488     Ni2495   1.921       .  S
O2488      C2498   1.283       .  A
O2489     Ni2495   1.909       .  S
O2489      C2499   1.278       .  A
O2490      C2500   1.278       .  A
O2491      C2500   1.286       .  A
O2492     Ni2496   1.921       .  S
O2492      C2499   1.282       .  A
O2493     Ni2496   1.886       .  S
O2493      C2498   1.275       .  A
O2494      C2497   1.277       .  A
Ni2495    Ni2496   2.391       .  S
C2497      C2761   1.468       .  S
C2498      C2781   1.461       .  S
C2499      C2808   1.466       .  S
C2500      C2748   1.490       .  S
O2501     Ni2509   1.911       .  S
O2501      C2511   1.279       .  A
O2502     Ni2509   1.926       .  S
O2502      C2512   1.282       .  A
O2503     Ni2509   1.917       .  S
O2503      C2513   1.281       .  A
O2504     Ni2509   1.916       .  S
O2504      C2514   1.281       .  A
O2505     Ni2510   1.919       .  S
O2505      C2514   1.282       .  A
O2506     Ni2510   1.909       .  S
O2506      C2513   1.282       .  A
O2507     Ni2510   1.922       .  S
O2507      C2512   1.281       .  A
O2508     Ni2510   1.911       .  S
O2508      C2511   1.280       .  A
Ni2509    Ni2510   2.388       .  S
C2511      C2708   1.461       .  S
C2512      C2688   1.474       .  S
C2513      C2668   1.485       .  S
C2514      C2728   1.485       .  S
C2515      C2520   1.412       .  A
C2516      C2517   1.416       .  A
C2517      C2518   1.404       .  A
C2517      H2522   1.084       .  S
C2518      C2701   1.481       .  S
C2519      C2741   1.490       .  S
C2519      C2520   1.390       .  A
C2520      H2521   1.086       .  S
O2523      C2533   1.282       .  A
O2524     Ni2531   1.924       .  S
O2524      C2534   1.284       .  A
O2525     Ni2531   1.930       .  S
O2525      C2535   1.283       .  A
O2526      C2536   1.281       .  A
O2527      C2536   1.284       .  A
O2528     Ni2532   1.928       .  S
O2528      C2535   1.285       .  A
O2529     Ni2532   1.910       .  S
O2529      C2534   1.279       .  A
O2530      C2533   1.281       .  A
Ni2531    Ni2532   2.386       .  S
C2533      C2588   1.476       .  S
C2534      C2641   1.481       .  S
C2535      C2621   1.498       .  S
C2536      C2608   1.485       .  S
C2537      C2542   1.412       .  A
C2538      C2539   1.413       .  A
C2539      C2540   1.391       .  A
C2539      H2544   1.085       .  S
C2540      C2768   1.480       .  S
C2541      C2721   1.487       .  S
C2541      C2542   1.396       .  A
C2542      H2543   1.081       .  S
C2545      C2546   1.450       .  A
C2545      C2550   1.427       .  A
C2546      C2547   1.410       .  A
C2547      C2548   1.393       .  A
C2547      H2552   1.085       .  S
C2548      C2788   1.476       .  S
C2548      C2549   1.409       .  A
C2549      C2628   1.507       .  S
C2549      C2550   1.405       .  A
C2550      H2551   1.083       .  S
C2553      C2554   1.463       .  A
C2553      C2558   1.413       .  A
C2554      C2555   1.413       .  A
C2555      C2556   1.400       .  A
C2555      H2560   1.080       .  S
C2556      C2801   1.494       .  S
C2556      C2557   1.413       .  A
C2557      C2648   1.491       .  S
C2557      C2558   1.399       .  A
C2558      H2559   1.084       .  S
C2561      C2566   1.407       .  A
C2562      C2563   1.415       .  A
C2563      C2564   1.397       .  A
C2563      H2568   1.085       .  S
C2564      C2661   1.494       .  S
C2565      C2581   1.479       .  S
C2565      C2566   1.390       .  A
C2566      H2567   1.085       .  S
C2569      C2574   1.410       .  A
C2570      C2571   1.426       .  A
C2571      C2572   1.406       .  A
C2571      H2576   1.084       .  S
C2572      C2601   1.496       .  S
C2573      C2681   1.484       .  S
C2573      C2574   1.394       .  A
C2574      H2575   1.085       .  S
C2577      C2578   1.414       .  A
C2577      C2582   1.390       .  A
C2577      F2595   1.358       .  S
C2578      C2583   1.492       .  S
C2578      C2579   1.410       .  A
C2579      C2580   1.399       .  A
C2579      F2584   1.350       .  S
C2580      C2581   1.401       .  A
C2581      C2582   1.400       .  A
C2582      F2585   1.358       .  S
C2583      C2586   1.404       .  A
C2583      C2590   1.419       .  A
C2586      C2587   1.388       .  A
C2586      F2591   1.359       .  S
C2587      C2588   1.400       .  A
C2587      F2593   1.348   1_565  S
C2588      C2589   1.403       .  A
C2589      C2590   1.411       .  A
C2589      F2592   1.356       .  S
C2590      F2594   1.356       .  S
C2597      C2598   1.416       .  A
C2597      C2602   1.403       .  A
C2597      F2615   1.353       .  S
C2598      C2603   1.514       .  S
C2598      C2599   1.414       .  A
C2599      C2600   1.407       .  A
C2599      F2604   1.356       .  S
C2600      C2601   1.404       .  A
C2600      F2616   1.357       .  S
C2601      C2602   1.403       .  A
C2602      F2605   1.358       .  S
C2603      C2606   1.409       .  A
C2603      C2610   1.413       .  A
C2606      C2607   1.403       .  A
C2606      F2611   1.341       .  S
C2607      C2608   1.401       .  A
C2607      F2613   1.358       .  S
C2608      C2609   1.407       .  A
C2609      C2610   1.403       .  A
C2609      F2612   1.358       .  S
C2610      F2614   1.353       .  S
C2617      C2618   1.405       .  A
C2617      C2622   1.404       .  A
C2617      F2635   1.350       .  S
C2618      C2623   1.503       .  S
C2618      C2619   1.406       .  A
C2619      C2620   1.408       .  A
C2619      F2624   1.354       .  S
C2620      C2621   1.415       .  A
C2620      F2636   1.358       .  S
C2621      C2622   1.408       .  A
C2622      F2625   1.357       .  S
C2623      C2626   1.410       .  A
C2623      C2630   1.404       .  A
C2626      C2627   1.407       .  A
C2626      F2631   1.358       .  S
C2627      C2628   1.412       .  A
C2627      F2633   1.358       .  S
C2628      C2629   1.405       .  A
C2629      C2630   1.404       .  A
C2629      F2632   1.354       .  S
C2630      F2634   1.349       .  S
C2637      C2638   1.408       .  A
C2637      C2642   1.399       .  A
C2637      F2655   1.357       .  S
C2638      C2643   1.498       .  S
C2638      C2639   1.409       .  A
C2639      C2640   1.402       .  A
C2639      F2644   1.350       .  S
C2640      C2641   1.404       .  A
C2640      F2656   1.356       .  S
C2641      C2642   1.407       .  A
C2642      F2645   1.357       .  S
C2643      C2646   1.411       .  A
C2643      C2650   1.407       .  A
C2646      C2647   1.406       .  A
C2646      F2651   1.358       .  S
C2647      C2648   1.410       .  A
C2647      F2653   1.358       .  S
C2648      C2649   1.399       .  A
C2649      C2650   1.394       .  A
C2649      F2652   1.357       .  S
C2650      F2654   1.347       .  S
C2657      C2658   1.398       .  A
C2657      C2662   1.392       .  A
C2657      F2675   1.350       .  S
C2658      C2663   1.486       .  S
C2658      C2659   1.406       .  A
C2659      C2660   1.410       .  A
C2659      F2664   1.356       .  S
C2660      C2661   1.412       .  A
C2660      F2676   1.357       .  S
C2661      C2662   1.405       .  A
C2662      F2665   1.358       .  S
C2663      C2666   1.401       .  A
C2663      C2670   1.400       .  A
C2666      C2667   1.403       .  A
C2666      F2671   1.351       .  S
C2667      C2668   1.414       .  A
C2667      F2673   1.357       .  S
C2668      C2669   1.406       .  A
C2669      C2670   1.395       .  A
C2669      F2672   1.356       .  S
C2670      F2674   1.349       .  S
C2677      C2678   1.418       .  A
C2677      C2682   1.395       .  A
C2677      F2695   1.356       .  S
C2678      C2683   1.502       .  S
C2678      C2679   1.407       .  A
C2679      C2680   1.403       .  A
C2679      F2684   1.352       .  S
C2680      C2681   1.403       .  A
C2680      F2696   1.356       .  S
C2681      C2682   1.399       .  A
C2683      C2686   1.400       .  A
C2683      C2690   1.424       .  A
C2686      C2687   1.382       .  A
C2686      F2691   1.354       .  S
C2687      C2688   1.391       .  A
C2687      F2693   1.339       .  S
C2688      C2689   1.400       .  A
C2689      C2690   1.413       .  A
C2689      F2692   1.357       .  S
C2690      F2694   1.352       .  S
C2697      C2698   1.411       .  A
C2697      C2702   1.396       .  A
C2697      F2715   1.355       .  S
C2698      C2703   1.502       .  S
C2698      C2699   1.415       .  A
C2699      C2700   1.396       .  A
C2699      F2704   1.348       .  S
C2700      C2701   1.397       .  A
C2700      F2716   1.358       .  S
C2701      C2702   1.404       .  A
C2703      C2706   1.412       .  A
C2703      C2710   1.417       .  A
C2706      C2707   1.390       .  A
C2706      F2711   1.357       .  S
C2707      C2708   1.399       .  A
C2707      F2713   1.356       .  S
C2708      C2709   1.395       .  A
C2709      C2710   1.399       .  A
C2709      F2712   1.358       .  S
C2710      F2714   1.349       .  S
C2717      C2718   1.413       .  A
C2717      C2722   1.403       .  A
C2717      F2735   1.354       .  S
C2718      C2723   1.498       .  S
C2718      C2719   1.410       .  A
C2719      C2720   1.396       .  A
C2719      F2724   1.357       .  S
C2720      C2721   1.403       .  A
C2720      F2736   1.356       .  S
C2721      C2722   1.402       .  A
C2722      F2725   1.357       .  S
C2723      C2726   1.408       .  A
C2723      C2730   1.404       .  A
C2726      C2727   1.398       .  A
C2726      F2731   1.352       .  S
C2727      C2728   1.408       .  A
C2727      F2733   1.358       .  S
C2728      C2729   1.405       .  A
C2729      C2730   1.399       .  A
C2729      F2732   1.357       .  S
C2730      F2734   1.347       .  S
C2737      C2738   1.411       .  A
C2737      C2742   1.400       .  A
C2737      F2755   1.349       .  S
C2738      C2743   1.506       .  S
C2738      C2739   1.412       .  A
C2739      C2740   1.402       .  A
C2739      F2744   1.357       .  S
C2740      C2741   1.405       .  A
C2740      F2756   1.358       .  S
C2741      C2742   1.400       .  A
C2742      F2745   1.357       .  S
C2743      C2746   1.402       .  A
C2743      C2750   1.405       .  A
C2746      C2747   1.401       .  A
C2746      F2751   1.350       .  S
C2747      C2748   1.414       .  A
C2747      F2753   1.358       .  S
C2748      C2749   1.401       .  A
C2749      C2750   1.403       .  A
C2749      F2752   1.353       .  S
C2750      F2754   1.343       .  S
C2757      C2758   1.424       .  A
C2757      C2762   1.404       .  A
C2757      F2775   1.354       .  S
C2758      C2763   1.507       .  S
C2758      C2759   1.410       .  A
C2759      C2760   1.392       .  A
C2759      F2764   1.355       .  S
C2760      C2761   1.401       .  A
C2760      F2776   1.358   1_655  S
C2761      C2762   1.396       .  A
C2762      F2765   1.357       .  S
C2763      C2766   1.412       .  A
C2763      C2770   1.418       .  A
C2766      C2767   1.401       .  A
C2766      F2771   1.348       .  S
C2767      C2768   1.397       .  A
C2767      F2773   1.357       .  S
C2768      C2769   1.399       .  A
C2769      C2770   1.393       .  A
C2777      C2778   1.407       .  A
C2777      C2782   1.397       .  A
C2777      F2795   1.348       .  S
C2778      C2783   1.470       .  S
C2778      C2779   1.397       .  A
C2779      C2780   1.385       .  A
C2779      F2784   1.359       .  S
C2780      C2781   1.409       .  A
C2780      F2796   1.357       .  S
C2781      C2782   1.397       .  A
C2782      F2785   1.356       .  S
C2783      C2786   1.406       .  A
C2783      C2790   1.398       .  A
C2786      C2787   1.398       .  A
C2786      F2791   1.355       .  S
C2787      C2788   1.404       .  A
C2787      F2793   1.358       .  S
C2788      C2789   1.402       .  A
C2789      C2790   1.390       .  A
C2789      F2792   1.357       .  S
C2790      F2794   1.356       .  S
C2797      C2798   1.407       .  A
C2797      C2802   1.395       .  A
C2797      F2815   1.357       .  S
C2798      C2803   1.495       .  S
C2798      C2799   1.413       .  A
C2799      C2800   1.400       .  A
C2799      F2804   1.355       .  S
C2800      C2801   1.404       .  A
C2800      F2816   1.357       .  S
C2801      C2802   1.407       .  A
C2802      F2805   1.356       .  S
C2803      C2806   1.413       .  A
C2803      C2810   1.407       .  A
C2806      C2807   1.403       .  A
C2806      F2811   1.348       .  S
C2807      C2808   1.398       .  A
C2807      F2813   1.357       .  S
C2808      C2809   1.397       .  A
C2809      C2810   1.392       .  A
C2809      F2812   1.356       .  S
C2810      F2814   1.356       .  S
C2817      C2818   1.410       .  A
C2817      C2822   1.402       .  A
C2817      F2835   1.355       .  S
C2818      C2823   1.476       .  S
C2818      C2819   1.402       .  A
C2819      C2820   1.387       .  A
C2819      F2824   1.359       .  S
C2820      C2821   1.401       .  A
C2820      F2836   1.353       .  S
C2821      C2822   1.401       .  A
C2822      F2825   1.357       .  S
C2823      C2826   1.406       .  A
C2823      C2830   1.407       .  A
C2826      C2827   1.394       .  A
C2826      F2831   1.351       .  S
C2827      C2828   1.400       .  A
C2827      F2833   1.358       .  S
C2828      C2829   1.401       .  A
C2829      C2830   1.393       .  A
C2829      F2832   1.358       .  S
C2830      F2834   1.358       .  S
C2837      C2838   1.389       .  A
C2837      C2842   1.398       .  A
C2837      F2855   1.346       .  S
C2838      C2843   1.475       .  S
C2838      C2839   1.398       .  A
C2839      C2840   1.395       .  A
C2839      F2844   1.345   1_565  S
C2840      C2841   1.408       .  A
C2840      F2856   1.358       .  S
C2841      C2842   1.410       .  A
C2842      F2845   1.357       .  S
C2843      C2846   1.404       .  A
C2843      C2850   1.405       .  A
C2846      C2847   1.397       .  A
C2846      F2851   1.354       .  S
C2847      C2848   1.405       .  A
C2848      C2849   1.405       .  A
C2849      C2850   1.397       .  A
C2849      F2852   1.358       .  S
C2850      F2854   1.357       .  S
C2857      C2858   1.407       .  A
C2857      C2862   1.388       .  A
C2857      F2875   1.356       .  S
C2858      C2863   1.485       .  S
C2858      C2859   1.410       .  A
C2859      C2860   1.401       .  A
C2859      F2864   1.354       .  S
C2860      C2861   1.403       .  A
C2860      F2876   1.358       .  S
C2861      C2862   1.402       .  A
C2862      F2865   1.357       .  S
C2863      C2866   1.406       .  A
C2863      C2870   1.410       .  A
C2866      C2867   1.396       .  A
C2866      F2871   1.355       .  S
C2867      C2868   1.404       .  A
C2867      F2873   1.357       .  S
C2868      C2869   1.398       .  A
C2869      C2870   1.396       .  A
C2869      F2872   1.358       .  S
C2870      F2874   1.358       .  S
C2877      C2878   1.410       .  A
C2877      C2882   1.403       .  A
C2877      F2895   1.358       .  S
C2878      C2883   1.491       .  S
C2878      C2879   1.401       .  A
C2879      C2880   1.401       .  A
C2879      F2884   1.353       .  S
C2880      C2881   1.409       .  A
C2880      F2896   1.358       .  S
C2881      C2882   1.404       .  A
C2882      F2885   1.357       .  S
C2883      C2886   1.403       .  A
C2883      C2890   1.409       .  A
C2886      C2887   1.397       .  A
C2886      F2891   1.354       .  S
C2887      C2888   1.410       .  A
C2887      F2893   1.358       .  S
C2888      C2889   1.408       .  A
C2889      C2890   1.402       .  A
C2889      F2892   1.358       .  S
C2890      F2894   1.354       .  S
C2897      C2898   1.407       .  A
C2897      C2902   1.410       .  A
C2897      F2915   1.353       .  S
C2898      C2903   1.503       .  S
C2898      C2899   1.407       .  A
C2899      C2900   1.401       .  A
C2899      F2904   1.349       .  S
C2900      C2901   1.403       .  A
C2900      F2916   1.358       .  S
C2901      C2902   1.409       .  A
C2903      C2906   1.408       .  A
C2903      C2910   1.399       .  A
C2906      C2907   1.412       .  A
C2906      F2911   1.353       .  S
C2907      C2908   1.416       .  A
C2907      F2913   1.357       .  S
C2908      C2909   1.410       .  A
C2909      C2910   1.398       .  A
C2909      F2912   1.358       .  S
C2910      F2914   1.344       .  S
C2917      C2918   1.408       .  A
C2917      C2922   1.406       .  A
C2917      F2935   1.353       .  S
C2918      C2923   1.497       .  S
C2918      C2919   1.401       .  A
C2919      C2920   1.392       .  A
C2919      F2924   1.340       .  S
C2920      C2921   1.396       .  A
C2921      C2922   1.405       .  A
C2922      F2925   1.357       .  S
C2923      C2926   1.412       .  A
C2923      C2930   1.409       .  A
C2926      C2927   1.396       .  A
C2926      F2931   1.353       .  S
C2927      C2928   1.406       .  A
C2927      F2933   1.358       .  S
C2928      C2929   1.411       .  A
C2929      C2930   1.401       .  A
C2929      F2932   1.358       .  S
C2930      F2934   1.357       .  S
C2937      C2938   1.408       .  A
C2937      C2942   1.412       .  A
C2937      F2955   1.350       .  S
C2938      C2943   1.497       .  S
C2938      C2939   1.398       .  A
C2939      C2940   1.403       .  A
C2939      F2944   1.354       .  S
C2940      C2941   1.409       .  A
C2940      F2956   1.352       .  S
C2941      C2942   1.405       .  A
C2942      F2945   1.357       .  S
C2943      C2946   1.405       .  A
C2943      C2950   1.407       .  A
C2946      C2947   1.406       .  A
C2946      F2951   1.357       .  S
C2947      C2948   1.410       .  A
C2948      C2949   1.403       .  A
C2949      C2950   1.407       .  A
C2949      F2952   1.353       .  S
C2950      F2954   1.352       .  S
C2957      C2958   1.411       .  A
C2957      C2962   1.400       .  A
C2957      F2975   1.356       .  S
C2958      C2963   1.501       .  S
C2958      C2959   1.411       .  A
C2959      C2960   1.394       .  A
C2959      F2964   1.346       .  S
C2960      C2961   1.404       .  A
C2960      F2976   1.358       .  S
C2961      C2962   1.407       .  A
C2962      F2965   1.354       .  S
C2963      C2966   1.411       .  A
C2963      C2970   1.417       .  A
C2966      C2967   1.395       .  A
C2966      F2971   1.355       .  S
C2967      C2968   1.396       .  A
C2967      F2973   1.350       .  S
C2968      C2969   1.400       .  A
C2969      C2970   1.402       .  A
C2969      F2972   1.357       .  S
C2970      F2974   1.355       .  S
C2977      C2978   1.417       .  A
C2977      C2982   1.404       .  A
C2977      F2995   1.349       .  S
C2978      C2983   1.509       .  S
C2978      C2979   1.411       .  A
C2979      C2980   1.396       .  A
C2979      F2984   1.355       .  S
C2980      C2981   1.404       .  A
C2980      F2996   1.357       .  S
C2981      C2982   1.400       .  A
C2982      F2985   1.358       .  S
C2983      C2986   1.410       .  A
C2983      C2990   1.413       .  A
C2986      C2987   1.404       .  A
C2986      F2991   1.350       .  S
C2987      C2988   1.404       .  A
C2987      F2993   1.357       .  S
C2988      C2989   1.402       .  A
C2989      C2990   1.402       .  A
C2989      F2992   1.357       .  S
C2990      F2994   1.352       .  S
C2997      C2998   1.402       .  A
C2997      C3002   1.392       .  A
C2997      F3015   1.347       .  S
C2998      C3003   1.499       .  S
C2998      C2999   1.411       .  A
C2999      C3000   1.408       .  A
C2999      F3004   1.357       .  S
C3000      C3001   1.414       .  A
C3000      F3016   1.357       .  S
C3001      C3002   1.409       .  A
C3002      F3005   1.358       .  S
C3003      C3006   1.411       .  A
C3003      C3010   1.410       .  A
C3006      C3007   1.397       .  A
C3006      F3011   1.355       .  S
C3007      C3008   1.403       .  A
C3007      F3013   1.358       .  S
C3008      C3009   1.405       .  A
C3009      C3010   1.405       .  A
C3009      F3012   1.357       .  S
C3010      F3014   1.355       .  S
C3017      C3018   1.410       .  A
C3017      C3022   1.406       .  A
C3017      F3035   1.354       .  S
C3018      C3023   1.496       .  S
C3018      C3019   1.403       .  A
C3019      C3020   1.396       .  A
C3019      F3024   1.353       .  S
C3020      C3021   1.405       .  A
C3020      F3036   1.358       .  S
C3021      C3022   1.406       .  A
C3022      F3025   1.357       .  S
C3023      C3026   1.407       .  A
C3023      C3030   1.404       .  A
C3026      C3027   1.395       .  A
C3026      F3031   1.348       .  S
C3027      C3028   1.400       .  A
C3027      F3033   1.358       .  S
C3028      C3029   1.408       .  A
C3029      C3030   1.407       .  A
C3029      F3032   1.356       .  S
C3030      F3034   1.352       .  S
C3037      C3038   1.400       .  A
C3037      C3042   1.389       .  A
C3037      F3055   1.352       .  S
C3038      C3043   1.484       .  S
C3038      C3039   1.413       .  A
C3039      C3040   1.405       .  A
C3039      F3044   1.357       .  S
C3040      C3041   1.403       .  A
C3040      F3056   1.357       .  S
C3041      C3042   1.400       .  A
C3042      F3045   1.353   1_565  S
C3043      C3046   1.409       .  A
C3043      C3050   1.406       .  A
C3046      C3047   1.392       .  A
C3046      F3051   1.357       .  S
C3047      C3048   1.401       .  A
C3047      F3053   1.358       .  S
C3048      C3049   1.396       .  A
C3049      C3050   1.395       .  A
C3049      F3052   1.354       .  S
C3050      F3054   1.349       .  S
