geometry optimzed in LAMMPS
_audit_creation_date              2020-11-30 
_audit_creation_method            'lammps2cif' 
_symmetry_space_group_name_H-M    'P1' 
_symmetry_Int_Tables_number       1 
_symmetry_cell_setting            triclinic 
loop_ 
_symmetry_equiv_pos_as_xyz 
  x,y,z 
_cell_length_a                    27.51246619 
_cell_length_b                    27.61432931896577 
_cell_length_c                    77.41113923728739 
_cell_angle_alpha                 90.14578730808881 
_cell_angle_beta                  89.84481536135037 
_cell_angle_gamma                 87.8093108694435 
loop_ 
_atom_site_label 
_atom_site_type_symbol 
_atom_site_fract_x 
_atom_site_fract_y 
_atom_site_fract_z 
_atom_site_charge 
N1          N  0.52731955  0.99981962  0.71035184    -0.36200
N2          N  0.03115925  0.99939820  0.66932975    -0.56700
N3          N  0.05204098  0.43245627  0.66841157    -0.36200
N4          N  0.52510081  0.39568805  0.70880926    -0.56700
C5          C  0.55652609  0.02953739  0.70181866     0.27400
C6          C  0.55247353  0.98242081  0.72405508     0.27400
C7          C  0.06375846  0.43356341  0.65131135     0.27400
C8          C  0.04779768  0.38568824  0.67291463     0.27400
C9          C  0.02255482  0.04556052  0.67417602     0.36000
C10         C  0.05323947  0.00102693  0.65378284     0.36000
C11         C  0.54739984  0.39488764  0.72437753     0.36000
C12         C  0.52016368  0.34895971  0.70427469     0.36000
C13         C  0.60064870  0.03215848  0.71022011    -0.21500
C14         C  0.59755323  0.00325793  0.72471694    -0.21500
C15         C  0.06766458  0.38670051  0.64498377    -0.21500
C16         C  0.05902284  0.35636443  0.65872340    -0.21500
C17         C  0.04169241  0.07690939  0.66225656    -0.22500
C18         C  0.06048430  0.04859287  0.64906850    -0.22500
C19         C  0.55635115  0.34782315  0.72964192    -0.22500
C20         C  0.54223339  0.31869310  0.71640091    -0.22500
C21         C  0.99433571  0.05878235  0.68864934    -0.17900
C22         C  0.54052408  0.93996327  0.73276821    -0.17900
C23         C  0.49270204  0.33359590  0.69003001    -0.17900
C24         C  0.06787285  0.47609739  0.64119162    -0.17900
H25         H  0.63185171  0.05193064  0.70610512     0.15000
H26         H  0.62713817  0.99470823  0.73345315     0.15000
H27         H  0.07610234  0.37563850  0.63187506     0.15000
H28         H  0.05939731  0.31719609  0.65818940     0.15000
H29         H  0.03954998  0.11606022  0.66264050     0.13300
H30         H  0.07519930  0.06147141  0.63702182     0.13300
H31         H  0.57209179  0.33624584  0.74175186     0.13300
H32         H  0.54574058  0.27954216  0.71607853     0.13300
H33         H  0.49297734  0.98945163  0.70634765     0.26600
H34         H  0.04028681  0.46136972  0.67622195     0.26600
N35         N  0.48445463  0.10657801  0.71158859    -0.36200
N36         N  0.94335170  0.16945380  0.66894343    -0.56700
N37         N  0.97163137  0.26587934  0.67045942    -0.36200
N38         N  0.45200217  0.21649185  0.70922052    -0.56700
C39         C  0.46550169  0.08510900  0.69761577     0.27400
C40         C  0.44687336  0.12100196  0.72179554     0.27400
C41         C  0.95553163  0.26399707  0.65395501     0.27400
C42         C  0.97190104  0.31297141  0.67501053     0.27400
C43         C  0.94324860  0.12140929  0.67166194     0.36000
C44         C  0.94491412  0.17605694  0.65172222     0.36000
C45         C  0.44898843  0.20711062  0.72637084     0.36000
C46         C  0.45314636  0.26517249  0.70759200     0.36000
C47         C  0.41533513  0.08625513  0.69870120    -0.21500
C48         C  0.40357493  0.10955991  0.71389048    -0.21500
C49         C  0.94532440  0.31062234  0.64802086    -0.21500
C50         C  0.95444244  0.34154642  0.66151417    -0.21500
C51         C  0.93879812  0.09735897  0.65600512    -0.22500
C52         C  0.94045611  0.13218241  0.64326698    -0.22500
C53         C  0.44575331  0.25003296  0.73566040    -0.22500
C54         C  0.44692607  0.28687559  0.72368763    -0.22500
C55         C  0.49265929  0.06931170  0.68312049    -0.17900
C56         C  0.44986904  0.15965739  0.73326981    -0.17900
C57         C  0.46185642  0.28897614  0.69166050    -0.17900
C58         C  0.95257326  0.22127985  0.64396001    -0.17900
H59         H  0.39002357  0.07394908  0.68910074     0.15000
H60         H  0.36714772  0.12077775  0.71768131     0.15000
H61         H  0.93269221  0.32144742  0.63534265     0.15000
H62         H  0.95096588  0.38071656  0.66119107     0.15000
H63         H  0.93824300  0.05859066  0.65397811     0.13300
H64         H  0.94066398  0.12571028  0.62947182     0.13300
H65         H  0.44292392  0.25448591  0.74951920     0.13300
H66         H  0.44463456  0.32526223  0.72651003     0.13300
H67         H  0.52048137  0.11656683  0.71297057     0.26600
H68         H  0.47710622  0.20319628  0.67624378     0.26600
N69         N  0.24031125  0.09014801  0.70567919    -0.36200
N70         N  0.33064971  0.46999617  0.70623328    -0.56700
N71         N  0.31617063  0.46474023  0.66850420    -0.36200
N72         N  0.22229536  0.07825792  0.66683000    -0.56700
C73         C  0.26234190  0.09585278  0.72114922     0.27400
C74         C  0.22651707  0.13464450  0.70012334     0.27400
C75         C  0.31566432  0.41800496  0.67331840     0.27400
C76         C  0.30807338  0.46643731  0.65129361     0.27400
C77         C  0.33704330  0.47909101  0.72315633     0.36000
C78         C  0.32264089  0.42255069  0.70449412     0.36000
C79         C  0.21092395  0.12528939  0.66999753     0.36000
C80         C  0.24023405  0.07572575  0.65054478     0.36000
C81         C  0.26220961  0.14459688  0.72533509    -0.21500
C82         C  0.24217702  0.16929821  0.71158162    -0.21500
C83         C  0.31587104  0.38896698  0.65865847    -0.21500
C84         C  0.31079941  0.41960186  0.64468613    -0.21500
C85         C  0.33968131  0.43562076  0.73213897    -0.22500
C86         C  0.33074952  0.39954966  0.72019656    -0.22500
C87         C  0.22489160  0.15300775  0.65605068    -0.22500
C88         C  0.24076957  0.12131070  0.64329921    -0.22500
C89         C  0.27878000  0.05760828  0.73201052    -0.17900
C90         C  0.19458776  0.14334136  0.68620955    -0.17900
C91         C  0.25973667  0.03323835  0.64260582    -0.17900
C92         C  0.29889014  0.40399689  0.68979898    -0.17900
H93         H  0.27251400  0.16077478  0.73736029     0.15000
H94         H  0.23666233  0.20818763  0.71068206     0.15000
H95         H  0.31271262  0.35002225  0.65824302     0.15000
H96         H  0.30366539  0.40806834  0.63160948     0.15000
H97         H  0.34286614  0.43054648  0.74593821     0.13300
H98         H  0.32613329  0.36164135  0.72304441     0.13300
H99         H  0.22622227  0.19198295  0.65548901     0.13300
H100        H  0.25543434  0.13087246  0.63082813     0.13300
H101        H  0.22793581  0.05810769  0.70042901     0.26600
H102        H  0.31709516  0.49376484  0.67696455     0.26600
N103        N  0.14309051  0.24606804  0.70913597    -0.36200
N104        N  0.20601844  0.32399604  0.70997902    -0.56700
N105        N  0.21282420  0.32160614  0.67045747    -0.36200
N106        N  0.14618607  0.24978762  0.66993788    -0.56700
C107        C  0.15066386  0.24756370  0.72642398     0.27400
C108        C  0.13925968  0.19913143  0.70464761     0.27400
C109        C  0.22482602  0.36591021  0.67600279     0.27400
C110        C  0.19422910  0.32692626  0.65426186     0.27400
C111        C  0.19019857  0.32631041  0.72652058     0.36000
C112        C  0.22988803  0.36482601  0.70698910     0.36000
C113        C  0.13347727  0.20454695  0.67355384     0.36000
C114        C  0.14900141  0.25300870  0.65265261     0.36000
C115        C  0.14414173  0.20185487  0.73328023    -0.21500
C116        C  0.13696045  0.17122516  0.71947233    -0.21500
C117        C  0.21108636  0.40014166  0.66362861    -0.21500
C118        C  0.19359253  0.37516730  0.64958722    -0.21500
C119        C  0.20256247  0.36960391  0.73392851    -0.22500
C120        C  0.22608374  0.39496274  0.72134552    -0.22500
C121        C  0.12185091  0.18075797  0.65844732    -0.22500
C122        C  0.13209867  0.21143691  0.64509685    -0.22500
C123        C  0.17065408  0.28701151  0.73549509    -0.17900
C124        C  0.15280790  0.18104951  0.68810716    -0.17900
C125        C  0.17448503  0.28944593  0.64428666    -0.17900
C126        C  0.25269536  0.37479932  0.69106248    -0.17900
H127        H  0.15012231  0.19038228  0.74646813     0.15000
H128        H  0.13625983  0.13212447  0.72005705     0.15000
H129        H  0.21505889  0.43891534  0.66442642     0.15000
H130        H  0.17999525  0.39080820  0.63766610     0.15000
H131        H  0.19598415  0.38080707  0.74713916     0.13300
H132        H  0.23823224  0.43156482  0.72262655     0.13300
H133        H  0.11623757  0.14247818  0.65701036     0.13300
H134        H  0.13403390  0.20101550  0.63163942     0.13300
H135        H  0.14481232  0.27468407  0.70048862     0.26600
H136        H  0.22159542  0.28909405  0.67679050     0.26600
N137        N  0.09188969  0.97532061  0.77731976    -0.36200
N138        N  0.09476115  0.96742716  0.81663827    -0.56700
N139        N  0.48501939  0.93001500  0.81536475    -0.36200
N140        N  0.48666837  0.93552941  0.77731907    -0.56700
C141        C  0.13559644  0.99073690  0.78206124     0.27400
C142        C  0.09595468  0.96145717  0.76057338     0.27400
C143        C  0.48994837  0.93112114  0.83273121     0.27400
C144        C  0.43716308  0.93408252  0.81182433     0.27400
C145        C  0.13668714  0.98853112  0.81282640     0.36000
C146        C  0.10115464  0.94613557  0.83221918     0.36000
C147        C  0.49234335  0.93381295  0.76010548     0.36000
C148        C  0.43890405  0.93373227  0.78054266     0.36000
C149        C  0.16859738  0.98351944  0.76866229    -0.21500
C150        C  0.14245202  0.96850398  0.75465820    -0.21500
C151        C  0.44418232  0.92918051  0.84029075    -0.21500
C152        C  0.41090316  0.92971326  0.82700771    -0.21500
C153        C  0.17083403  0.97810209  0.82556140    -0.22500
C154        C  0.14743927  0.95325250  0.83832810    -0.22500
C155        C  0.44791035  0.92703887  0.75219332    -0.22500
C156        C  0.41393702  0.92616804  0.76529028    -0.22500
C157        C  0.14412126  0.01540664  0.79760590    -0.17900
C158        C  0.53747111  0.93993982  0.75196881    -0.17900
C159        C  0.41866593  0.95234565  0.79597902    -0.17900
C160        C  0.53437068  0.93825756  0.84153700    -0.17900
H161        H  0.20687963  0.99096798  0.76872689     0.15000
H162        H  0.15594394  0.96354814  0.74166838     0.15000
H163        H  0.43486775  0.93103975  0.85384931     0.15000
H164        H  0.37173737  0.93209774  0.82848024     0.15000
H165        H  0.20881747  0.98656323  0.82547365     0.13300
H166        H  0.16319991  0.93985925  0.85026565     0.13300
H167        H  0.44011790  0.92581095  0.73852123     0.13300
H168        H  0.37492834  0.92556106  0.76365546     0.13300
H169        H  0.06004905  0.97968293  0.78460806     0.26600
H170        H  0.51258562  0.93037152  0.80625646     0.26600
N171        N  0.97586907  0.18443196  0.77845952    -0.36200
N172        N  0.40566797  0.18593931  0.77757774    -0.56700
N173        N  0.40186409  0.18288180  0.81625603    -0.36200
N174        N  0.97088416  0.16498314  0.81622657    -0.56700
C175        C  0.97451671  0.19292206  0.76127089     0.27400
C176        C  0.02230548  0.17378538  0.78268044     0.27400
C177        C  0.35599821  0.19600528  0.81165117     0.27400
C178        C  0.39952307  0.16379653  0.83235152     0.27400
C179        C  0.40602118  0.16766837  0.76135696     0.36000
C180        C  0.35926534  0.20049809  0.78088447     0.36000
C181        C  0.01925674  0.16297245  0.81375205     0.36000
C182        C  0.96344259  0.16066801  0.83333912     0.36000
C183        C  0.01962646  0.18106978  0.75408612    -0.21500
C184        C  0.04992853  0.16899126  0.76769654    -0.21500
C185        C  0.32388512  0.18213678  0.82443844    -0.21500
C186        C  0.35169522  0.16383774  0.83785062    -0.21500
C187        C  0.36007365  0.17027437  0.75450566    -0.22500
C188        C  0.32973500  0.18825693  0.76723006    -0.22500
C189        C  0.04248715  0.15060833  0.82904257    -0.22500
C190        C  0.00707534  0.14948028  0.84158106    -0.22500
C191        C  0.44778871  0.15063791  0.75233900    -0.17900
C192        C  0.04085476  0.18408972  0.79920768    -0.17900
C193        C  0.43995027  0.14888323  0.84250111    -0.17900
C194        C  0.34351352  0.22232437  0.79650147    -0.17900
H195        H  0.03069918  0.18514346  0.74075810     0.15000
H196        H  0.08896373  0.16389145  0.76691218     0.15000
H197        H  0.28461476  0.18630510  0.82433792     0.15000
H198        H  0.33844332  0.15113717  0.85012030     0.15000
H199        H  0.34994780  0.15848457  0.74188973     0.13300
H200        H  0.29049891  0.19183515  0.76653385     0.13300
H201        H  0.08110661  0.14959971  0.83141829     0.13300
H202        H  0.01371923  0.14615012  0.85529205     0.13300
H203        H  0.94800499  0.18957512  0.78733883     0.26600
H204        H  0.43308369  0.19253461  0.80962938     0.26600
N205        N  0.23350467  0.08607443  0.77777236    -0.36200
N206        N  0.23405747  0.08159677  0.81719054    -0.56700
N207        N  0.32049748  0.02724989  0.81568991    -0.36200
N208        N  0.32188440  0.03294704  0.77659599    -0.56700
C209        C  0.18610994  0.08399947  0.78198231     0.27400
C210        C  0.23712668  0.08156870  0.76035027     0.27400
C211        C  0.32123782  0.04351442  0.83219631     0.27400
C212        C  0.36705185  0.01870143  0.81093516     0.27400
C213        C  0.18654400  0.08272168  0.81333472     0.36000
C214        C  0.23752510  0.07513215  0.83438648     0.36000
C215        C  0.32239828  0.05130538  0.76045460     0.36000
C216        C  0.36777179  0.01805126  0.78017322     0.36000
C217        C  0.15857518  0.08696337  0.76700312    -0.21500
C218        C  0.19083394  0.08529019  0.75328821    -0.21500
C219        C  0.36860379  0.04607046  0.83787573    -0.21500
C220        C  0.39784368  0.03255382  0.82408002    -0.21500
C221        C  0.15947977  0.08363680  0.82849400    -0.22500
C222        C  0.19196596  0.07954720  0.84196574    -0.22500
C223        C  0.36904369  0.04861812  0.75381880    -0.22500
C224        C  0.39832986  0.02971051  0.76666532    -0.22500
C225        C  0.17070550  0.06298273  0.79766472    -0.17900
C226        C  0.28014155  0.06586543  0.75129882    -0.17900
C227        C  0.38122335  0.99435172  0.79563472    -0.17900
C228        C  0.27976662  0.05506692  0.84222808    -0.17900
H229        H  0.11979910  0.08240216  0.76601455     0.15000
H230        H  0.18085580  0.07994773  0.73995016     0.15000
H231        H  0.38053708  0.05763973  0.85047056     0.15000
H232        H  0.43721275  0.03060255  0.82399852     0.15000
H233        H  0.12094077  0.07807661  0.82957985     0.13300
H234        H  0.18258317  0.07250476  0.85528328     0.13300
H235        H  0.38066573  0.05939165  0.74117250     0.13300
H236        H  0.43747431  0.02475370  0.76605619     0.13300
H237        H  0.26162265  0.08563654  0.78669568     0.26600
H238        H  0.29028633  0.01649077  0.80872336     0.26600
N239        N  0.13930990  0.25166547  0.78085088    -0.36200
N240        N  0.23368669  0.28232371  0.77914706    -0.56700
N241        N  0.23884143  0.28419618  0.81708678    -0.36200
N242        N  0.14385475  0.24837492  0.81920819    -0.56700
C243        C  0.13738563  0.27508505  0.76549245     0.27400
C244        C  0.09331383  0.24895742  0.78654683     0.27400
C245        C  0.28641591  0.28132814  0.81294826     0.27400
C246        C  0.23534230  0.28225532  0.83449738     0.27400
C247        C  0.22512262  0.28600905  0.76206974     0.36000
C248        C  0.28208146  0.28096430  0.78150061     0.36000
C249        C  0.09723614  0.23766697  0.81682969     0.36000
C250        C  0.14789406  0.26337676  0.83564104     0.36000
C251        C  0.08939869  0.28713208  0.76148930    -0.21500
C252        C  0.06161569  0.27232074  0.77515996    -0.21500
C253        C  0.31367512  0.28597550  0.82789180    -0.21500
C254        C  0.28138426  0.28565962  0.84156980    -0.21500
C255        C  0.26892830  0.29087934  0.75341260    -0.22500
C256        C  0.30496380  0.28902510  0.76583396    -0.22500
C257        C  0.07025733  0.24916608  0.83153573    -0.22500
C258        C  0.10291622  0.26368140  0.84375847    -0.22500
C259        C  0.17794153  0.28328030  0.75475650    -0.17900
C260        C  0.07986711  0.22127219  0.80090411    -0.17900
C261        C  0.19261584  0.27122736  0.84377808    -0.17900
C262        C  0.30405249  0.26294755  0.79687521    -0.17900
H263        H  0.07554406  0.30354640  0.74981809     0.15000
H264        H  0.02240361  0.27582251  0.77617601     0.15000
H265        H  0.35293736  0.28406433  0.82892697     0.15000
H266        H  0.29129926  0.28382799  0.85507029     0.15000
H267        H  0.27496891  0.29307621  0.73963980     0.13300
H268        H  0.34373873  0.28921596  0.76342016     0.13300
H269        H  0.03129133  0.24780969  0.83322946     0.13300
H270        H  0.09462233  0.27387702  0.85698360     0.13300
H271        H  0.16888787  0.23230245  0.78617782     0.26600
H272        H  0.21076420  0.28272529  0.80830580     0.26600
N273        N  0.44056612  0.11273936  0.28088673    -0.36200
N274        N  0.39492658  0.09401491  0.31745578    -0.56700
N275        N  0.51885059  0.50951970  0.31896836    -0.36200
N276        N  0.53727049  0.51600282  0.28065492    -0.56700
C277        C  0.39866260  0.13913309  0.28280685     0.27400
C278        C  0.44956041  0.10679191  0.26363000     0.27400
C279        C  0.49346175  0.50840316  0.33396312     0.27400
C280        C  0.52398968  0.46301609  0.31374397     0.27400
C281        C  0.37435175  0.13778702  0.31382717     0.36000
C282        C  0.39923502  0.09193981  0.33490863     0.36000
C283        C  0.53843648  0.51917646  0.26319674     0.36000
C284        C  0.56281912  0.47497990  0.28481185     0.36000
C285        C  0.38208684  0.15255878  0.26653717    -0.21500
C286        C  0.41469126  0.13349841  0.25457373    -0.21500
C287        C  0.48204508  0.46207345  0.33833263    -0.21500
C288        C  0.49923146  0.43367820  0.32521130    -0.21500
C289        C  0.36063288  0.16115566  0.32917411    -0.22500
C290        C  0.37698612  0.13212481  0.34257936    -0.22500
C291        C  0.56763046  0.48236592  0.25627140    -0.22500
C292        C  0.58421806  0.45514754  0.26994987    -0.22500
C293        C  0.38475983  0.16292628  0.29842384    -0.17900
C294        C  0.51224826  0.55445795  0.25355593    -0.17900
C295        C  0.54958208  0.44563761  0.29891017    -0.17900
C296        C  0.47277733  0.54808238  0.34259699    -0.17900
H297        H  0.34966877  0.17373023  0.26341908     0.15000
H298        H  0.41248375  0.13803314  0.24073907     0.15000
H299        H  0.45925452  0.45080464  0.34890440     0.15000
H300        H  0.49132081  0.39597883  0.32401736     0.15000
H301        H  0.34621172  0.19801595  0.33050445     0.13300
H302        H  0.37603481  0.14121359  0.35618373     0.13300
H303        H  0.57299342  0.47359613  0.24278811     0.13300
H304        H  0.60285230  0.42019145  0.26873902     0.13300
H305        H  0.46323279  0.10438577  0.29123444     0.26600
H306        H  0.53230182  0.54010526  0.31297520     0.26600
N307        N  0.49700150  0.34202947  0.27542007    -0.36200
N308        N  0.42784634  0.27155996  0.28079311    -0.56700
N309        N  0.46044822  0.26004488  0.31789813    -0.36200
N310        N  0.53902494  0.32072450  0.31194871    -0.56700
C311        C  0.46031793  0.35239382  0.26409989     0.27400
C312        C  0.50554309  0.38406565  0.28357733     0.27400
C313        C  0.44516406  0.21703671  0.31221101     0.27400
C314        C  0.49280284  0.24993011  0.33060840     0.27400
C315        C  0.40872825  0.28732041  0.26574445     0.36000
C316        C  0.39309782  0.24792516  0.28898162     0.36000
C317        C  0.56451234  0.35873159  0.30679185     0.36000
C318        C  0.54732426  0.31486682  0.32909991     0.36000
C319        C  0.44424865  0.39985617  0.26566622    -0.21500
C320        C  0.47191848  0.41969692  0.27804781    -0.21500
C321        C  0.47101683  0.17990818  0.32070784    -0.21500
C322        C  0.49971670  0.20084660  0.33283352    -0.21500
C323        C  0.35985286  0.27694038  0.26502258    -0.22500
C324        C  0.34987553  0.25221458  0.27996778    -0.22500
C325        C  0.59505544  0.37212115  0.32017177    -0.22500
C326        C  0.58239668  0.34593328  0.33453266    -0.22500
C327        C  0.43417004  0.31840660  0.25502243    -0.17900
C328        C  0.54421760  0.39320183  0.29509568    -0.17900
C329        C  0.51938708  0.28408192  0.33934139    -0.17900
C330        C  0.40548466  0.21156205  0.30076715    -0.17900
H331        H  0.41364871  0.41792037  0.25976297     0.15000
H332        H  0.46635876  0.45633011  0.28278695     0.15000
H333        H  0.47038163  0.14159068  0.31838615     0.15000
H334        H  0.52491038  0.18238003  0.34154525     0.15000
H335        H  0.33293319  0.28777695  0.25566405     0.13300
H336        H  0.31577777  0.23609812  0.28323410     0.13300
H337        H  0.61744038  0.40352171  0.32047795     0.13300
H338        H  0.59515886  0.35215408  0.34748952     0.13300
H339        H  0.51602548  0.30884785  0.27694455     0.26600
H340        H  0.44725053  0.29448907  0.31421583     0.26600
N341        N  0.27195947  0.97762957  0.28094794    -0.36200
N342        N  0.24850913  0.39085355  0.27467934    -0.56700
N343        N  0.24506639  0.39607165  0.31468783    -0.36200
N344        N  0.28903002  0.97708271  0.31829201    -0.56700
C345        C  0.28117798  0.96970636  0.26397491     0.27400
C346        C  0.29085659  0.01997686  0.28532783     0.27400
C347        C  0.23840382  0.35096122  0.30853852     0.27400
C348        C  0.26540540  0.39160915  0.33061734     0.27400
C349        C  0.24212412  0.40652076  0.25827461     0.36000
C350        C  0.20965781  0.36518216  0.27887675     0.36000
C351        C  0.28682989  0.02536349  0.31596160     0.36000
C352        C  0.28620673  0.96974118  0.33542413     0.36000
C353        C  0.30803974  0.00731621  0.25774063    -0.21500
C354        C  0.31427322  0.03916093  0.27126722    -0.21500
C355        C  0.25757844  0.31735834  0.32029487    -0.21500
C356        C  0.27319668  0.34311290  0.33449198    -0.21500
C357        C  0.20094224  0.38704514  0.25133855    -0.22500
C358        C  0.17873501  0.36343698  0.26469060    -0.22500
C359        C  0.28922777  0.04886834  0.33175602    -0.22500
C360        C  0.28844545  0.01337030  0.34420787    -0.22500
C361        C  0.26979037  0.44315652  0.25074699    -0.17900
C362        C  0.27402564  0.04591560  0.29987979    -0.17900
C363        C  0.27597148  0.43099592  0.34160734    -0.17900
C364        C  0.20540677  0.34093608  0.29495187    -0.17900
H365        H  0.31573455  0.01462468  0.24442672     0.15000
H366        H  0.32807838  0.07501807  0.27028629     0.15000
H367        H  0.25652795  0.27828754  0.31933953     0.15000
H368        H  0.28837358  0.32800780  0.34627576     0.15000
H369        H  0.18610123  0.39244147  0.23854002     0.13300
H370        H  0.14352105  0.34756898  0.26384791     0.13300
H371        H  0.28713663  0.08751192  0.33408963     0.13300
H372        H  0.28546799  0.01935946  0.35799027     0.13300
H373        H  0.24530209  0.96218152  0.28841816     0.26600
H374        H  0.22947574  0.42782068  0.30947326     0.26600
N375        N  0.18039156  0.26004903  0.27049687    -0.36200
N376        N  0.15060517  0.24241089  0.31804650    -0.56700
N377        N  0.19993807  0.15070206  0.31677569    -0.36200
N378        N  0.20573181  0.14930279  0.27779494    -0.56700
C379        C  0.15207421  0.27420822  0.28399551     0.27400
C380        C  0.15570863  0.22691802  0.26166233     0.27400
C381        C  0.17899593  0.15124050  0.33266781     0.27400
C382        C  0.20833290  0.10375765  0.31250621     0.27400
C383        C  0.15285740  0.28977422  0.31436755     0.36000
C384        C  0.15807283  0.23782194  0.33504541     0.36000
C385        C  0.19560047  0.14951168  0.26063656     0.36000
C386        C  0.21932114  0.10319404  0.28164741     0.36000
C387        C  0.10883430  0.25000488  0.28372551    -0.21500
C388        C  0.11184765  0.21912224  0.26987671    -0.21500
C389        C  0.17227971  0.10444235  0.33821325    -0.21500
C390        C  0.18905833  0.07434961  0.32511859    -0.21500
C391        C  0.15579151  0.31621327  0.32955806    -0.22500
C392        C  0.15927939  0.28296464  0.34279775    -0.22500
C393        C  0.20058200  0.10358202  0.25381534    -0.22500
C394        C  0.21218456  0.07402014  0.26737675    -0.22500
C395        C  0.16718022  0.30378448  0.29766136    -0.17900
C396        C  0.17922622  0.19116464  0.25169868    -0.17900
C397        C  0.23599644  0.08742378  0.29808245    -0.17900
C398        C  0.16983454  0.19309399  0.34274552    -0.17900
H399        H  0.07988123  0.25191064  0.29324079     0.15000
H400        H  0.08698981  0.19062829  0.26718668     0.15000
H401        H  0.15691857  0.09333034  0.35039610     0.15000
H402        H  0.18921549  0.03514117  0.32520784     0.15000
H403        H  0.16122724  0.35460004  0.33080886     0.13300
H404        H  0.16717763  0.29091122  0.35617247     0.13300
H405        H  0.19394447  0.09166294  0.24086623     0.13300
H406        H  0.21169553  0.03522058  0.26686047     0.13300
H407        H  0.21697201  0.26766236  0.26865080     0.26600
H408        H  0.21362913  0.18018959  0.31017097     0.26600
O409        O  0.02112610  0.53072258  0.42110726    -0.72500
O410        O  0.03177720  0.52003557  0.47334564    -0.73500
O411        O  0.02795340  0.45146250  0.44627223    -0.62100
O412        O  0.03761937  0.09964397  0.44973813    -0.70500
O413        O  0.44675828  0.08420492  0.45091907    -0.70100
O414        O  0.45272448  0.43387958  0.45029826    -0.61300
O415        O  0.45313068  0.50541827  0.47677892    -0.73800
O416        O  0.44827306  0.51198396  0.42540702    -0.72600
Cu417      Cu  0.03072947  0.52486384  0.44718059     1.04600
Cu418      Cu  0.44930552  0.50878399  0.45104546     1.04300
C419        C  0.48678049  0.51419172  0.41632733     0.93700
C420        C  0.49383934  0.50052241  0.48447212     0.92800
C421        C  0.49329867  0.40916643  0.44959261     0.85000
C422        C  0.48759326  0.10519785  0.44922303     0.91200
O423        O  0.45336123  0.25472743  0.47452047    -0.72500
O424        O  0.45834141  0.26415204  0.42169476    -0.73500
O425        O  0.45101345  0.18573606  0.44724025    -0.62100
O426        O  0.45418639  0.33285047  0.44939232    -0.70500
O427        O  0.03220538  0.35112217  0.44964621    -0.70100
O428        O  0.03752098  0.20121997  0.44957906    -0.61300
O429        O  0.03704466  0.27765472  0.42404341    -0.73800
O430        O  0.03844165  0.27413102  0.47551027    -0.72600
Cu431      Cu  0.45141509  0.25947090  0.44815035     1.04600
Cu432      Cu  0.03898997  0.27607531  0.44969686     1.04300
C433        C  0.49347254  0.25057917  0.48297034     0.93700
C434        C  0.50032496  0.26462724  0.41434640     0.92800
C435        C  0.49012192  0.15945509  0.44826023     0.85000
C436        C  0.49424320  0.35474561  0.44973682     0.91200
O437        O  0.24653592  0.46252123  0.47651486    -0.72500
O438        O  0.26725913  0.45484715  0.42574250    -0.73500
O439        O  0.25902292  0.03404877  0.45014442    -0.62100
O440        O  0.25361532  0.38426745  0.45162523    -0.70500
O441        O  0.17356847  0.38886351  0.44870750    -0.70100
O442        O  0.17907448  0.03529987  0.44687995    -0.61300
O443        O  0.18793989  0.45779436  0.42124745    -0.73800
O444        O  0.16628065  0.46839389  0.47428738    -0.72600
Cu445      Cu  0.25872650  0.45842372  0.45128577     1.04600
Cu446      Cu  0.17348830  0.46327353  0.44765207     1.04300
C447        C  0.20481253  0.46858827  0.48359581     0.93700
C448        C  0.23166532  0.45343047  0.41528244     0.92800
C449        C  0.21832836  0.05818113  0.44886799     0.85000
C450        C  0.21311386  0.36308304  0.45004702     0.91200
O451        O  0.24708192  0.20638943  0.42276671    -0.72500
O452        O  0.25868462  0.21339396  0.47534876    -0.73500
O453        O  0.25607781  0.13568221  0.44951156    -0.62100
O454        O  0.25263598  0.28382232  0.44841673    -0.70500
O455        O  0.17232695  0.28644979  0.45059501    -0.70100
O456        O  0.17571314  0.13666528  0.45120376    -0.61300
O457        O  0.17812110  0.21433318  0.47671418    -0.73800
O458        O  0.16696936  0.20914147  0.42572873    -0.72600
Cu459      Cu  0.25648489  0.20976016  0.44893556     1.04600
Cu460      Cu  0.17067266  0.21165197  0.45117471     1.04300
C461        C  0.20448863  0.20548155  0.41608359     0.93700
C462        C  0.21922046  0.21645150  0.48419730     0.92800
C463        C  0.21655738  0.11267236  0.44989421     0.85000
C464        C  0.21247409  0.30863070  0.44965650     0.91200
O465        O  0.10123623  0.50132918  0.03594937    -0.72500
O466        O  0.45292772  0.50152156  0.03582123    -0.73500
O467        O  0.52691887  0.50269540  0.00983165    -0.62100
O468        O  0.52630575  0.50567048  0.06212272    -0.70500
O469        O  0.51095182  0.04696962  0.06066556    -0.70100
O470        O  0.51141621  0.03376928  0.00978864    -0.61300
O471        O  0.43588646  0.03668657  0.03568375    -0.73800
O472        O  0.08624474  0.03825006  0.03373993    -0.72600
Cu473      Cu  0.52652249  0.49974441  0.03590522     1.04600
Cu474      Cu  0.51088254  0.04129932  0.03525971     1.04300
C475        C  0.11028842  0.99754110  0.03522894     0.93700
C476        C  0.41478230  0.99604741  0.03714154     0.92800
C477        C  0.51436104  0.99225125  0.00268686     0.85000
C478        C  0.51227332  0.01100883  0.07089159     0.91200
O479        O  0.36609445  0.24598863  0.03756418    -0.72500
O480        O  0.01801986  0.24387111  0.03710383    -0.73500
O481        O  0.43963641  0.24994888  0.01162032    -0.62100
O482        O  0.44123373  0.24879023  0.06371781    -0.70500
O483        O  0.44461578  0.16837377  0.06413733    -0.70100
O484        O  0.44498867  0.16956826  0.01181871    -0.61300
O485        O  0.01896732  0.16359018  0.03733429    -0.73800
O486        O  0.37137307  0.16571184  0.03760414    -0.72600
Cu487      Cu  0.44031734  0.25155729  0.03765286     1.04600
Cu488      Cu  0.44532599  0.16571300  0.03789891     1.04300
C489        C  0.34538350  0.20509680  0.03720690     0.93700
C490        C  0.04188896  0.20304050  0.03695772     0.92800
C491        C  0.44142329  0.20963952  0.00351769     0.85000
C492        C  0.44350603  0.20901666  0.07213423     0.91200
O493        O  0.18749725  0.03456930  0.03661910    -0.72500
O494        O  0.33469222  0.03352276  0.03827888    -0.73500
O495        O  0.26392238  0.03318470  0.01112981    -0.62100
O496        O  0.25797069  0.02732832  0.06414627    -0.70500
O497        O  0.27573742  0.49162603  0.05904666    -0.70100
O498        O  0.27830011  0.49869951  0.00836472    -0.61300
O499        O  0.35202665  0.49863829  0.03416408    -0.73800
O500        O  0.20213860  0.49872468  0.03359754    -0.72600
Cu501      Cu  0.26095043  0.03505302  0.03760890     1.04600
Cu502      Cu  0.27722419  0.49430134  0.03373831     1.04300
C503        C  0.16469850  0.99531494  0.03557915     0.93700
C504        C  0.36036850  0.99410425  0.03738462     0.92800
C505        C  0.26624911  0.99326464  0.00248311     0.85000
C506        C  0.25881555  0.98479823  0.07091025     0.91200
O507        O  0.26566201  0.24294204  0.03519665    -0.72500
O508        O  0.11822379  0.24166163  0.03553212    -0.73500
O509        O  0.19253060  0.24718265  0.06066199    -0.62100
O510        O  0.19124718  0.23596118  0.00977637    -0.70500
O511        O  0.19470968  0.15553298  0.01072909    -0.70100
O512        O  0.19594610  0.16701509  0.06258318    -0.61300
O513        O  0.12085145  0.16146029  0.03703944    -0.73800
O514        O  0.27004544  0.16276242  0.03671012    -0.72600
Cu515      Cu  0.19178739  0.24449909  0.03515997     1.04600
Cu516      Cu  0.19554793  0.15871076  0.03681603     1.04300
C517        C  0.29121658  0.20341056  0.03630980     0.93700
C518        C  0.09615344  0.20181583  0.03645265     0.92800
C519        C  0.19512231  0.20879536  0.06976016     0.85000
C520        C  0.19204426  0.19491261  0.00213043     0.91200
N521        N  0.46139899  0.02416227  0.21087515    -0.36200
N522        N  0.05338640  0.07554217  0.20743907    -0.56700
N523        N  0.05648911  0.07976484  0.16826517    -0.36200
N524        N  0.46664152  0.01948760  0.17030483    -0.56700
C525        C  0.47576475  0.54148841  0.22421237     0.27400
C526        C  0.41795672  0.00811325  0.20577303     0.27400
C527        C  0.10407843  0.07987423  0.17217881     0.27400
C528        C  0.05314048  0.07058617  0.15115382     0.27400
C529        C  0.05346216  0.59125576  0.22575307     0.36000
C530        C  0.09826281  0.08790344  0.20300078     0.36000
C531        C  0.42092989  0.00912539  0.17480370     0.36000
C532        C  0.46350125  0.03756045  0.15407501     0.36000
C533        C  0.42748199  0.54790583  0.22907379    -0.21500
C534        C  0.40017987  0.53466615  0.21502817    -0.21500
C535        C  0.13118469  0.07947499  0.15708488    -0.21500
C536        C  0.09903701  0.07266036  0.14372957    -0.21500
C537        C  0.09489181  0.60867101  0.23327719    -0.22500
C538        C  0.12716989  0.61484897  0.21977254    -0.22500
C539        C  0.38868442  0.02344325  0.16187233    -0.22500
C540        C  0.41614391  0.03845328  0.14824558    -0.22500
C541        C  0.51591675  0.55505307  0.23425200    -0.17900
C542        C  0.40871614  0.98387379  0.18991760    -0.17900
C543        C  0.50291582  0.05463844  0.14459206    -0.17900
C544        C  0.12187060  0.06671235  0.18865175    -0.17900
H545        H  0.41339405  0.56298954  0.24106381     0.15000
H546        H  0.36091637  0.53679188  0.21411331     0.15000
H547        H  0.17043822  0.07787153  0.15606682     0.15000
H548        H  0.10949109  0.06479863  0.13052043     0.15000
H549        H  0.10220887  0.61314578  0.24689158     0.13300
H550        H  0.16448173  0.62409352  0.22031510     0.13300
H551        H  0.34945549  0.02193344  0.16210308     0.13300
H552        H  0.40268070  0.05157545  0.13592367     0.13300
H553        H  0.49369133  0.01633183  0.20420283     0.26600
H554        H  0.02825076  0.08156702  0.17721301     0.26600
N555        N  0.41171022  0.25611739  0.21416927    -0.36200
N556        N  0.98906811  0.33710827  0.20767090    -0.56700
N557        N  0.02335123  0.27253275  0.16362363    -0.36200
N558        N  0.43536812  0.21598068  0.17599415    -0.56700
C559        C  0.39891026  0.29066296  0.22616280     0.27400
C560        C  0.37073089  0.24473218  0.20569058     0.27400
C561        C  0.02081826  0.31281129  0.17352538     0.27400
C562        C  0.98605704  0.27500836  0.15240605     0.27400
C563        C  0.98970257  0.33514583  0.22504828     0.36000
C564        C  0.03470228  0.34446826  0.20247300     0.36000
C565        C  0.40393255  0.18621566  0.18337630     0.36000
C566        C  0.44452082  0.19892015  0.15979081     0.36000
C567        C  0.35023422  0.30346166  0.22442932    -0.21500
C568        C  0.33227771  0.27433701  0.21174519    -0.21500
C569        C  0.98150406  0.34217416  0.16850302    -0.21500
C570        C  0.95954408  0.31823156  0.15506009    -0.21500
C571        C  0.03526417  0.34702116  0.23107003    -0.22500
C572        C  0.06342129  0.35447107  0.21666916    -0.22500
C573        C  0.39892905  0.14601154  0.17269880    -0.22500
C574        C  0.42423755  0.15458021  0.15763299    -0.22500
C575        C  0.43207222  0.31894372  0.23538423    -0.17900
C576        C  0.36567495  0.20547896  0.19386952    -0.17900
C577        C  0.46128194  0.22948206  0.14659872    -0.17900
C578        C  0.05222203  0.32056318  0.18758611    -0.17900
H579        H  0.32998797  0.33213216  0.23110335     0.15000
H580        H  0.29496794  0.27541192  0.20733106     0.15000
H581        H  0.96874751  0.37580764  0.17446705     0.15000
H582        H  0.92462533  0.32831552  0.14944042     0.15000
H583        H  0.04904018  0.34522360  0.24411579     0.13300
H584        H  0.10249813  0.35789948  0.21674189     0.13300
H585        H  0.37268471  0.11816796  0.17427711     0.18100
H586        H  0.42249376  0.13421598  0.14576123     0.13300
H587        H  0.44616699  0.23982469  0.21232340     0.26600
H588        H  0.04559912  0.24164108  0.16581187     0.26600
N589        N  0.31335948  0.44504668  0.20402145    -0.36200
N590        N  0.30509892  0.93073866  0.16989021    -0.56700
N591        N  0.21750319  0.98420075  0.17122009    -0.36200
N592        N  0.21841287  0.98440239  0.20989451    -0.56700
C593        C  0.35183681  0.92514446  0.20424144     0.27400
C594        C  0.30901015  0.43899366  0.22128080     0.27400
C595        C  0.21473192  0.96229521  0.15557813     0.27400
C596        C  0.17159336  0.99464213  0.17642221     0.27400
C597        C  0.35301039  0.92759136  0.17310000     0.36000
C598        C  0.29955696  0.93414345  0.15268435     0.36000
C599        C  0.22790014  0.47983153  0.22438660     0.36000
C600        C  0.17512775  0.00728166  0.20702261     0.36000
C601        C  0.38714434  0.42877181  0.21480832    -0.21500
C602        C  0.35370577  0.42498989  0.22790589    -0.21500
C603        C  0.16656205  0.95762823  0.15100976    -0.21500
C604        C  0.13913962  0.97662349  0.16453078    -0.21500
C605        C  0.37829963  0.92247360  0.15764427    -0.22500
C606        C  0.34434304  0.92718418  0.14460432    -0.22500
C607        C  0.18344914  0.48897388  0.23230941    -0.22500
C608        C  0.15455648  0.51214901  0.22022660    -0.22500
C609        C  0.37192769  0.94363511  0.18898293    -0.17900
C610        C  0.26776949  0.45243759  0.23149707    -0.17900
C611        C  0.15932138  0.02466371  0.19069356    -0.17900
C612        C  0.25513312  0.94967851  0.14500669    -0.17900
H613        H  0.42618993  0.42633832  0.21613118     0.15000
H614        H  0.36106064  0.41639140  0.24108607     0.15000
H615        H  0.15281930  0.94217486  0.13921246     0.15000
H616        H  0.09982082  0.97918940  0.16517282     0.15000
H617        H  0.41732357  0.92248764  0.15591519     0.13300
H618        H  0.35272646  0.93047272  0.13101952     0.13300
H619        H  0.17179405  0.47766155  0.24495216     0.13300
H620        H  0.11583010  0.51738246  0.22104411     0.13300
H621        H  0.27647413  0.93244681  0.19866725     0.26600
H622        H  0.24851159  0.99751185  0.17701825     0.26600
N623        N  0.23970638  0.18596878  0.20716769    -0.36200
N624        N  0.15357304  0.24656026  0.20814089    -0.56700
N625        N  0.15866293  0.25147655  0.16958891    -0.36200
N626        N  0.24836169  0.19462384  0.16892709    -0.56700
C627        C  0.23068907  0.18430866  0.22439471     0.27400
C628        C  0.28755652  0.17594860  0.20477066     0.27400
C629        C  0.12888701  0.28959979  0.17369635     0.27400
C630        C  0.17005288  0.25575163  0.15275497     0.27400
C631        C  0.14764210  0.22141075  0.22294560     0.36000
C632        C  0.10860744  0.26063371  0.20276646     0.36000
C633        C  0.29478141  0.20125351  0.17369556     0.36000
C634        C  0.24516673  0.20765358  0.15208998     0.36000
C635        C  0.27285547  0.16891687  0.23284307    -0.21500
C636        C  0.30833525  0.16277488  0.22045266    -0.21500
C637        C  0.12289219  0.31963673  0.15945087    -0.21500
C638        C  0.14733130  0.29719632  0.14600641    -0.21500
C639        C  0.09875413  0.22019370  0.22702285    -0.22500
C640        C  0.07401575  0.24388585  0.21404730    -0.22500
C641        C  0.31998326  0.22032574  0.15988792    -0.22500
C642        C  0.28959900  0.22162728  0.14603213    -0.22500
C643        C  0.18586891  0.19843229  0.23251865    -0.17900
C644        C  0.31480573  0.19081084  0.19027699    -0.17900
C645        C  0.20240591  0.22398930  0.14387942    -0.17900
C646        C  0.09907981  0.29139717  0.18846502    -0.17900
H647        H  0.27885154  0.16557179  0.24655943     0.15000
H648        H  0.34633566  0.15433487  0.22290941     0.15000
H649        H  0.10033236  0.35249581  0.15848826     0.15000
H650        H  0.14817846  0.31071039  0.13294610     0.15000
H651        H  0.08222366  0.20161679  0.23758055     0.13300
H652        H  0.03498151  0.24767580  0.21292845     0.13300
H653        H  0.35530777  0.23552673  0.15983335     0.13300
H654        H  0.29730368  0.23846315  0.13376474     0.13300
H655        H  0.21544995  0.19589883  0.19754473     0.26600
H656        H  0.16471389  0.22044217  0.17697371     0.26600
O657        O  0.10781695  0.49646099  0.94938445    -0.72500
O658        O  0.45875874  0.48865121  0.95052497    -0.73500
O659        O  0.53628036  0.47347409  0.92651303    -0.62100
O660        O  0.53214738  0.49726765  0.97584455    -0.70500
O661        O  0.51730843  0.02846985  0.97459872    -0.70100
O662        O  0.52232436  0.01700765  0.92195915    -0.61300
O663        O  0.44595479  0.02911727  0.94776213    -0.73800
O664        O  0.09123594  0.02593982  0.94714402    -0.72600
Cu665      Cu  0.53434057  0.48514612  0.95114504     1.04600
Cu666      Cu  0.51979896  0.02723393  0.94822192     1.04300
C667        C  0.11803602  0.98760090  0.94894445     0.93700
C668        C  0.42206171  0.99060416  0.94917666     0.92800
C669        C  0.52242833  0.97413563  0.91546175     0.85000
C670        C  0.51687564  0.98960118  0.98369666     0.91200
O671        O  0.43753793  0.23445312  0.92263632    -0.72500
O672        O  0.43682414  0.24748699  0.97548497    -0.73500
O673        O  0.01128748  0.24355193  0.94873295    -0.62100
O674        O  0.36309727  0.24226063  0.94906663    -0.70500
O675        O  0.36615318  0.16223153  0.95123533    -0.70100
O676        O  0.01417288  0.16341824  0.95015765    -0.61300
O677        O  0.44052781  0.16723152  0.97711119    -0.73800
O678        O  0.44216379  0.15491703  0.92616717    -0.72600
Cu679      Cu  0.43678257  0.24514486  0.94900995     1.04600
Cu680      Cu  0.44118963  0.15970354  0.95163662     1.04300
C681        C  0.44011662  0.19147383  0.91618493     0.93700
C682        C  0.43939432  0.20847354  0.98448988     0.92800
C683        C  0.03626357  0.20354171  0.94935799     0.85000
C684        C  0.34116857  0.20238398  0.95006283     0.91200
O685        O  0.28628449  0.49749960  0.92101036    -0.72500
O686        O  0.28033650  0.49805515  0.97351667    -0.73500
O687        O  0.20895612  0.49702894  0.94689919    -0.62100
O688        O  0.35653001  0.49246461  0.94807962    -0.70500
O689        O  0.34336265  0.03432433  0.95025219    -0.70100
O690        O  0.19254152  0.03232995  0.95015233    -0.61300
O691        O  0.26724290  0.03409840  0.97583214    -0.73800
O692        O  0.26815835  0.04108338  0.92510566    -0.72600
Cu693      Cu  0.28283452  0.49345480  0.94734982     1.04600
Cu694      Cu  0.26767114  0.03812496  0.95037989     1.04300
C695        C  0.27128351  0.00464423  0.91506733     0.93700
C696        C  0.26823725  0.99350257  0.98345933     0.92800
C697        C  0.17220869  0.99112688  0.94907015     0.85000
C698        C  0.36762746  0.99351912  0.94929151     0.91200
O699        O  0.18838026  0.25503991  0.92632190    -0.72500
O700        O  0.18719149  0.23694354  0.97626037    -0.73500
O701        O  0.26211027  0.24342839  0.95140852    -0.62100
O702        O  0.11260878  0.24417658  0.95089807    -0.70500
O703        O  0.11610360  0.16438412  0.94776634    -0.70100
O704        O  0.26450007  0.16367044  0.94803371    -0.61300
O705        O  0.19078727  0.15671739  0.97405391    -0.73800
O706        O  0.19113517  0.17578441  0.92168955    -0.72600
Cu707      Cu  0.18732983  0.24739154  0.95134775     1.04600
Cu708      Cu  0.19054789  0.16214152  0.94771691     1.04300
C709        C  0.19099808  0.21939562  0.91593378     0.93700
C710        C  0.18983349  0.19540334  0.98326694     0.92800
C711        C  0.28675996  0.20317891  0.94983779     0.85000
C712        C  0.09082711  0.20406221  0.94930645     0.91200
O713        O  0.45782516  0.06358028  0.53847066    -0.72500
O714        O  0.45519389  0.41759185  0.53770080    -0.73500
O715        O  0.46389574  0.48791775  0.56477862    -0.62100
O716        O  0.45503405  0.49454153  0.51214035    -0.70500
O717        O  0.03795725  0.50822523  0.50803868    -0.70100
O718        O  0.05468242  0.50245187  0.55872237    -0.61300
O719        O  0.04156464  0.43075597  0.53346008    -0.73800
O720        O  0.04547248  0.08156177  0.53597075    -0.72600
Cu721      Cu  0.45521703  0.49142040  0.53845765     1.04600
Cu722      Cu  0.04744838  0.50535040  0.53338375     1.04300
C723        C  0.49669654  0.08684275  0.53651891     0.93700
C724        C  0.49446550  0.39143053  0.53690007     0.92800
C725        C  0.01863945  0.50088580  0.56900501     0.85000
C726        C  0.49468856  0.49447379  0.50335405     0.91200
O727        O  0.04113188  0.18342612  0.53657533    -0.72500
O728        O  0.03828443  0.33067309  0.53848712    -0.73500
O729        O  0.03198199  0.25212680  0.56422407    -0.62100
O730        O  0.03976526  0.26188457  0.51118139    -0.70500
O731        O  0.45231209  0.24338394  0.50962999    -0.70100
O732        O  0.44474609  0.23846899  0.56062580    -0.61300
O733        O  0.45149287  0.31587306  0.53596790    -0.73800
O734        O  0.45284186  0.16529932  0.53491914    -0.72600
Cu735      Cu  0.04072260  0.25701121  0.53769850     1.04600
Cu736      Cu  0.44768640  0.24085524  0.53522203     1.04300
C737        C  0.49394671  0.14136405  0.53581688     0.93700
C738        C  0.49227943  0.33711530  0.53702494     0.92800
C739        C  0.98910289  0.25199375  0.57092735     0.85000
C740        C  0.49310077  0.24497205  0.50195998     0.91200
O741        O  0.26142455  0.98180220  0.56074266    -0.72500
O742        O  0.24903983  0.97714016  0.51003736    -0.73500
O743        O  0.25362728  0.05415736  0.53539250    -0.62100
O744        O  0.25646629  0.40485623  0.53455003    -0.70500
O745        O  0.17694802  0.40809996  0.53917716    -0.70100
O746        O  0.17321420  0.05687553  0.53690495    -0.61300
O747        O  0.16847854  0.97822377  0.51122529    -0.73800
O748        O  0.18151141  0.98728879  0.56401731    -0.72600
Cu749      Cu  0.25704792  0.97938258  0.53539873     1.04600
Cu750      Cu  0.17131645  0.98268564  0.53776706     1.04300
C751        C  0.22444198  0.98789670  0.57050034     0.93700
C752        C  0.20486908  0.47593675  0.50262261     0.92800
C753        C  0.21332499  0.07900621  0.53664090     0.85000
C754        C  0.21644982  0.38307123  0.53661923     0.91200
O755        O  0.25324576  0.15527235  0.53917472    -0.72500
O756        O  0.25552244  0.30337050  0.53668590    -0.73500
O757        O  0.24829400  0.23641270  0.56451785    -0.62100
O758        O  0.25871971  0.22368646  0.51183548    -0.70500
O759        O  0.17812862  0.22836462  0.51076601    -0.70100
O760        O  0.16812664  0.23843775  0.56219057    -0.61300
O761        O  0.17504678  0.30741674  0.53555466    -0.73800
O762        O  0.17292110  0.15862711  0.53728279    -0.72600
Cu763      Cu  0.25678199  0.22938222  0.53817012     1.04600
Cu764      Cu  0.17094506  0.23322177  0.53640312     1.04300
C765        C  0.21310658  0.13345969  0.53779665     0.93700
C766        C  0.21564288  0.32880181  0.53619250     0.92800
C767        C  0.20605425  0.24217280  0.57150555     0.85000
C768        C  0.21920660  0.22313016  0.50313865     0.91200
C769        C  0.18884887  0.17270675  0.09909171    -0.20900
C770        C  0.19767646  0.21300361  0.08868524    -0.08900
C771        C  0.20984669  0.25700008  0.09655311     0.29900
C772        C  0.21224835  0.26049555  0.11447508    -0.20900
C773        C  0.20098425  0.22089369  0.12482981    -0.08900
C774        C  0.19053155  0.17663233  0.11703215     0.29900
F775        F  0.18213406  0.13718003  0.12682705    -0.19500
H776        H  0.18021032  0.13825753  0.09336729     0.18300
H777        H  0.22323479  0.29406181  0.12028684     0.18300
F778        F  0.22045356  0.29640132  0.08699359    -0.19400
C779        C  0.23846980  0.01240356  0.10138087    -0.20900
C780        C  0.25681939  0.97659266  0.08993642    -0.08900
C781        C  0.25407932  0.47401416  0.09373990     0.29900
C782        C  0.25237224  0.46409851  0.11139435    -0.20900
C783        C  0.25189047  0.95775187  0.12594281    -0.08900
C784        C  0.23611110  0.00318579  0.11921229     0.29900
F785        F  0.22016480  0.03931181  0.12994866    -0.19500
H786        H  0.22616971  0.04754254  0.09655477     0.18300
H787        H  0.24269655  0.42842468  0.11570851     0.18300
F788        F  0.24228217  0.43823528  0.08262386    -0.19400
C789        C  0.49064870  0.22673395  0.09851583    -0.20900
C790        C  0.44761522  0.21072342  0.09118603    -0.08900
C791        C  0.40880048  0.19936722  0.10212270     0.29900
C792        C  0.41324961  0.20440226  0.12015435    -0.20900
C793        C  0.45663242  0.22037823  0.12756855    -0.08900
C794        C  0.49528087  0.23143838  0.11643341     0.29900
F795        F  0.53774568  0.24709661  0.12289420    -0.19500
H796        H  0.52082572  0.23592317  0.09027880     0.18300
H797        H  0.88151553  0.22170873  0.12782055     0.18300
F798        F  0.86583294  0.21018114  0.09490330    -0.19400
C799        C  0.99408782  0.98879480  0.09991925    -0.20900
C800        C  0.51165166  0.02129321  0.08982728    -0.08900
C801        C  0.51846780  0.06888176  0.09601914     0.29900
C802        C  0.51483303  0.07961461  0.11364901    -0.20900
C803        C  0.50563352  0.04327906  0.12567593    -0.08900
C804        C  0.99231647  0.99977553  0.11761885     0.29900
F805        F  0.01191526  0.48545601  0.12755834    -0.19500
H806        H  0.01557238  0.48164666  0.09418646     0.18300
H807        H  0.51933404  0.11654961  0.11793638     0.18300
F808        F  0.52902528  0.10541325  0.08508884    -0.19400
C809        C  0.22679597  0.19171578  0.36766622    -0.20900
C810        C  0.17884986  0.19112895  0.36151668    -0.08900
C811        C  0.14008346  0.19291147  0.37321902     0.29900
C812        C  0.14909905  0.19685047  0.39087056    -0.20900
C813        C  0.19700346  0.19947198  0.39720747    -0.08900
C814        C  0.23600587  0.19574056  0.38538938     0.29900
F815        F  0.28280172  0.19668787  0.39083752    -0.19500
H816        H  0.25703344  0.19036310  0.35865174     0.18300
H817        H  0.11818741  0.19851207  0.39957149     0.18300
F818        F  0.09354655  0.19147066  0.36754328    -0.19400
C819        C  0.30204792  0.43676823  0.37268070    -0.20900
C820        C  0.26507063  0.42959597  0.36062457    -0.08900
C821        C  0.21688064  0.92851709  0.36744790     0.29900
C822        C  0.20708745  0.93717248  0.38502433    -0.20900
C823        C  0.24260536  0.44544977  0.39636194    -0.08900
C824        C  0.29124335  0.44450244  0.39022351     0.29900
F825        F  0.32882512  0.45204246  0.40108675    -0.19500
H826        H  0.33947084  0.43809591  0.36836272     0.18300
H827        H  0.16968555  0.94292051  0.38917245     0.18300
F828        F  0.17937611  0.92883688  0.35607428    -0.19400
C829        C  0.55654522  0.28459945  0.36957319    -0.20900
C830        C  0.51566688  0.28461534  0.35877049    -0.08900
C831        C  0.46938604  0.28122004  0.36664428     0.29900
C832        C  0.46460712  0.27498664  0.38453939    -0.20900
C833        C  0.50557317  0.27299260  0.39528409    -0.08900
C834        C  0.55160270  0.27992197  0.38759524     0.29900
F835        F  0.08728980  0.29871422  0.39735160    -0.19500
H836        H  0.08268612  0.30948605  0.36439869     0.18300
H837        H  0.42861073  0.27129405  0.38995766     0.18300
F838        F  0.42832900  0.28341430  0.35693689    -0.19400
C839        C  0.49662354  0.03587105  0.38503830    -0.20900
C840        C  0.48229848  0.52392252  0.39748329    -0.08900
C841        C  0.43626858  0.53000611  0.38946721     0.29900
C842        C  0.43268193  0.54026296  0.37178444    -0.20900
C843        C  0.47468464  0.54599518  0.36182203    -0.08900
C844        C  0.48589916  0.04857047  0.36790988     0.29900
F845        F  0.05439534  0.07607413  0.35890661    -0.19500
H846        H  0.05795891  0.05522495  0.39145749     0.18300
H847        H  0.39715353  0.54199838  0.36577767     0.18300
F848        F  0.39452749  0.52570531  0.39860783    -0.19400
C849        C  0.18709955  0.20955439  0.86705963    -0.20900
C850        C  0.19604834  0.25755878  0.86223855    -0.08900
C851        C  0.20557702  0.29177788  0.87498789     0.29900
C852        C  0.20491325  0.27838445  0.89233463    -0.20900
C853        C  0.19442270  0.23069775  0.89731090    -0.08900
C854        C  0.18617155  0.19610163  0.88445031     0.29900
F855        F  0.17572119  0.14993775  0.88862429    -0.19500
H856        H  0.17981802  0.18269374  0.85726688     0.18300
H857        H  0.21200969  0.30583654  0.90192271     0.18300
F858        F  0.21426258  0.33829523  0.87069188    -0.19400
C859        C  0.26916716  0.06415112  0.89085988    -0.20900
C860        C  0.27343229  0.01519452  0.89615644    -0.08900
C861        C  0.28102013  0.97928091  0.88337747     0.29900
C862        C  0.28420530  0.99254339  0.86586110    -0.20900
C863        C  0.27956408  0.04157213  0.86083398    -0.08900
C864        C  0.27220997  0.07712831  0.87352036     0.29900
F865        F  0.26790469  0.12458909  0.86911607    -0.19500
H866        H  0.26342615  0.09309982  0.90019190     0.18300
H867        H  0.28950907  0.96449994  0.85614844     0.18300
F868        F  0.28536134  0.93173180  0.88771946    -0.19400
C869        C  0.90997330  0.22463477  0.86814345    -0.20900
C870        C  0.43857154  0.15925481  0.86143339    -0.08900
C871        C  0.44885297  0.12284623  0.87362278     0.29900
C872        C  0.44984824  0.13415879  0.89122106    -0.20900
C873        C  0.44052396  0.18201042  0.89719512    -0.08900
C874        C  0.91546622  0.23160585  0.88598354     0.29900
F875        F  0.90902616  0.27702908  0.89253668    -0.19500
H876        H  0.90202721  0.25581982  0.86001845     0.18300
H877        H  0.45802321  0.10500781  0.90021454     0.18300
F878        F  0.45817733  0.07633573  0.86852859    -0.19400
C879        C  0.51440835  0.91180991  0.87176140    -0.20900
C880        C  0.53408886  0.94598472  0.86065953    -0.08900
C881        C  0.04563984  0.98118537  0.86530150     0.29900
C882        C  0.03582755  0.99191177  0.88276159    -0.20900
C883        C  0.52502786  0.96545123  0.89651928    -0.08900
C884        C  0.50922669  0.92154790  0.88941931     0.29900
F885        F  0.53494925  0.40524328  0.90560416    -0.19500
H886        H  0.50180359  0.87796878  0.86664342     0.18300
H887        H  0.02648543  0.02898623  0.88643290     0.18300
F888        F  0.04231824  0.01755936  0.85354566    -0.19400
C889        C  0.23087718  0.27605686  0.61884979    -0.20900
C890        C  0.18337008  0.28545854  0.62518809    -0.08900
C891        C  0.14431967  0.28176572  0.61366410     0.29900
C892        C  0.15237687  0.26717617  0.59651885    -0.20900
C893        C  0.19961627  0.25602758  0.59018204    -0.08900
C894        C  0.23907876  0.26160186  0.60155504     0.29900
F895        F  0.28545150  0.25236120  0.59612895    -0.19500
H896        H  0.26158448  0.27786293  0.62753018     0.18300
H897        H  0.12112481  0.26445539  0.58816456     0.18300
F898        F  0.09793665  0.28969130  0.61927737    -0.19400
C899        C  0.19394234  0.00918191  0.60044463    -0.20900
C900        C  0.23290775  0.99854445  0.58911594    -0.08900
C901        C  0.29640148  0.47850630  0.59437626     0.29900
C902        C  0.31045016  0.48672308  0.61142492    -0.20900
C903        C  0.25047841  0.02541967  0.62385947    -0.08900
C904        C  0.20256312  0.02198105  0.61769540     0.29900
F905        F  0.16414001  0.02964045  0.62851013    -0.19500
H906        H  0.15683112  0.00764302  0.59596302     0.18300
H907        H  0.34782125  0.47875916  0.61516866     0.18300
F908        F  0.33075427  0.46058488  0.58320895    -0.19400
C909        C  0.41669053  0.20640624  0.61254618    -0.20900
C910        C  0.96060847  0.22458647  0.62498899    -0.08900
C911        C  0.00682281  0.21353260  0.61788337     0.29900
C912        C  0.01671707  0.22338296  0.60045250    -0.20900
C913        C  0.98025736  0.24370162  0.58972316    -0.08900
C914        C  0.42511368  0.21910765  0.59536779     0.29900
F915        F  0.38590502  0.22461447  0.58485264    -0.19500
H916        H  0.37975503  0.20162752  0.61693795     0.18300
H917        H  0.05253630  0.21433501  0.59530625     0.18300
F918        F  0.04227985  0.19317197  0.62788549    -0.19400
C919        C  0.06621151  0.95940120  0.59351182    -0.20900
C920        C  0.02901060  0.49120079  0.58755111    -0.08900
C921        C  0.47629277  0.48639788  0.60265367     0.29900
C922        C  0.48376384  0.47665943  0.62026805    -0.20900
C923        C  0.05336298  0.47568568  0.62266551    -0.08900
C924        C  0.07656246  0.94945477  0.61086280     0.29900
F925        F  0.11658484  0.92152400  0.61483924    -0.19500
H926        H  0.09000633  0.94353906  0.58367406     0.18300
H927        H  0.45560120  0.48728443  0.62948549     0.18300
F928        F  0.43387108  0.50866140  0.59761184    -0.19400
N929        N  0.56305142  0.48999245  0.70948028    -0.36200
N930        N  0.08394677  0.52561072  0.66596156    -0.56700
N931        N  0.06641682  0.90320698  0.66664920    -0.36200
N932        N  0.51791933  0.90075834  0.70605743    -0.56700
C933        C  0.55728470  0.53809796  0.70673563     0.27400
C934        C  0.56060101  0.48238000  0.72669673     0.27400
C935        C  0.06010442  0.91323106  0.64966421     0.27400
C936        C  0.05566802  0.85643340  0.66921149     0.27400
C937        C  0.07096581  0.57154285  0.66990348     0.36000
C938        C  0.07881185  0.52078125  0.64886086     0.36000
C939        C  0.52648574  0.89965606  0.72320755     0.36000
C940        C  0.50215424  0.85677740  0.70198186     0.36000
C941        C  0.55858414  0.56201186  0.72252077    -0.21500
C942        C  0.55946521  0.52677366  0.73516834    -0.21500
C943        C  0.05196667  0.87071376  0.64086354    -0.21500
C944        C  0.05082391  0.83459216  0.65314956    -0.21500
C945        C  0.06692765  0.59858035  0.65493221    -0.22500
C946        C  0.07275567  0.56619721  0.64134596    -0.22500
C947        C  0.51920174  0.85409107  0.72976402    -0.22500
C948        C  0.50716503  0.82594415  0.71598338    -0.22500
C949        C  0.04427755  0.57956479  0.68513783    -0.17900
C950        C  0.55644843  0.43619360  0.73449096    -0.17900
C951        C  0.47759535  0.84725998  0.68650813    -0.17900
C952        C  0.05700332  0.96070574  0.64267007    -0.17900
H953        H  0.55569359  0.60073123  0.72474086     0.15000
H954        H  0.55653881  0.53345451  0.74890591     0.15000
H955        H  0.04512317  0.86627979  0.62721246     0.15000
H956        H  0.04550997  0.79677091  0.65044988     0.15000
H957        H  0.05412557  0.63596475  0.65399634     0.13300
H958        H  0.06526053  0.57425539  0.62791964     0.13300
H959        H  0.52030389  0.84278191  0.74309407     0.13300
H960        H  0.50019426  0.78777062  0.71645938     0.13300
H961        H  0.56694358  0.46349470  0.70001007     0.26600
H962        H  0.07618056  0.92775738  0.67608433     0.26600
N963        N  0.46641800  0.66233633  0.70694154    -0.36200
N964        N  0.95049448  0.64538964  0.66643980    -0.56700
N965        N  0.98312320  0.73674191  0.66817726    -0.36200
N966        N  0.41485284  0.75122345  0.70582467    -0.56700
C967        C  0.47779535  0.61564077  0.70307576     0.27400
C968        C  0.44340892  0.66253204  0.72246306     0.27400
C969        C  0.95927650  0.73776511  0.65289854     0.27400
C970        C  0.98053155  0.78191660  0.67454585     0.27400
C971        C  0.96336163  0.59917752  0.66980042     0.36000
C972        C  0.95224688  0.65119754  0.64922453     0.36000
C973        C  0.41351088  0.74738364  0.72313856     0.36000
C974        C  0.41214318  0.79863454  0.70191413     0.36000
C975        C  0.45889419  0.58581945  0.71556512    -0.21500
C976        C  0.43983388  0.61569276  0.72833101    -0.21500
C977        C  0.94105689  0.78426448  0.64958582    -0.21500
C978        C  0.95350271  0.81214609  0.66363010    -0.21500
C979        C  0.96529147  0.57314314  0.65453535    -0.22500
C980        C  0.95803365  0.60643460  0.64122943    -0.22500
C981        C  0.40381121  0.79277420  0.73040492    -0.22500
C982        C  0.40291820  0.82542704  0.71684090    -0.22500
C983        C  0.50625674  0.60007611  0.68876728    -0.17900
C984        C  0.42800260  0.70422350  0.73187780    -0.17900
C985        C  0.43274494  0.81597867  0.68645424    -0.17900
C986        C  0.95638963  0.69746082  0.64182526    -0.17900
H987        H  0.46051241  0.54662793  0.71566105     0.15000
H988        H  0.42417765  0.60469305  0.74044243     0.15000
H989        H  0.92115368  0.79673143  0.63830806     0.15000
H990        H  0.94682057  0.85080105  0.66511164     0.15000
H991        H  0.97706577  0.53560354  0.65329035     0.13300
H992        H  0.96273037  0.59936924  0.62755911     0.13300
H993        H  0.40286184  0.80223228  0.74397117     0.13300
H994        H  0.40195562  0.86450802  0.71801566     0.13300
H995        H  0.47947585  0.69207387  0.70034367     0.26600
H996        H  0.42346847  0.72192919  0.67694955     0.26600
N997        N  0.29023470  0.56373008  0.70524166    -0.36200
N998        N  0.29191545  0.00196307  0.70768293    -0.56700
N999        N  0.28724343  0.99529256  0.66960863    -0.36200
N1000       N  0.26778501  0.55641094  0.66763933    -0.56700
C1001       C  0.31883685  0.56628263  0.71945641     0.27400
C1002       C  0.27767727  0.60954482  0.70064207     0.27400
C1003       C  0.29971899  0.94967766  0.67422279     0.27400
C1004       C  0.28399821  0.99606172  0.65221728     0.27400
C1005       C  0.29148188  0.01127488  0.72482221     0.36000
C1006       C  0.29682018  0.95358734  0.70556630     0.36000
C1007       C  0.25744236  0.60354190  0.67080936     0.36000
C1008       C  0.28030168  0.55265322  0.65079890     0.36000
C1009       C  0.32482403  0.61435276  0.72362914    -0.21500
C1010       C  0.30009579  0.64187204  0.71146790    -0.21500
C1011       C  0.31242758  0.92281364  0.65965150    -0.21500
C1012       C  0.30190638  0.95196881  0.64565091    -0.21500
C1013       C  0.30116284  0.96851105  0.73376144    -0.22500
C1014       C  0.30541857  0.93205818  0.72150243    -0.22500
C1015       C  0.26605398  0.63049144  0.65606610    -0.22500
C1016       C  0.27858799  0.59789765  0.64315812    -0.22500
C1017       C  0.33270313  0.52655026  0.73022106    -0.17900
C1018       C  0.24451111  0.62188114  0.68732372    -0.17900
C1019       C  0.29093035  0.50832093  0.64221451    -0.17900
C1020       C  0.28416361  0.92991828  0.68992910    -0.17900
H1021       H  0.34329708  0.62771229  0.73480304     0.15000
H1022       H  0.29712833  0.68105700  0.71108923     0.15000
H1023       H  0.32126545  0.88431983  0.65910891     0.15000
H1024       H  0.30238538  0.93975057  0.63237859     0.15000
H1025       H  0.30171226  0.96327740  0.74759440     0.13300
H1026       H  0.31009982  0.89371514  0.72411608     0.13300
H1027       H  0.26449079  0.66952362  0.65481959     0.13300
H1028       H  0.28729931  0.60650284  0.62989950     0.13300
H1029       H  0.27327358  0.53339972  0.70044855     0.26600
H1030       H  0.27580664  0.02218158  0.67816408     0.26600
N1031       N  0.18716502  0.73094241  0.70927477    -0.36200
N1032       N  0.22163563  0.82541223  0.70878931    -0.56700
N1033       N  0.22385392  0.82266193  0.67012493    -0.36200
N1034       N  0.18619234  0.73072496  0.67172159    -0.56700
C1035       C  0.19058480  0.73819412  0.72646198     0.27400
C1036       C  0.19616019  0.68335837  0.70623440     0.27400
C1037       C  0.22998665  0.86976290  0.67392042     0.27400
C1038       C  0.20254964  0.82062234  0.65430366     0.27400
C1039       C  0.20042239  0.82597119  0.72452835     0.36000
C1040       C  0.22765934  0.87203357  0.70466560     0.36000
C1041       C  0.18232977  0.68375870  0.67543390     0.36000
C1042       C  0.17702225  0.73605547  0.65487064     0.36000
C1043       C  0.19574442  0.69382003  0.73471841    -0.21500
C1044       C  0.19843919  0.65918430  0.72185035    -0.21500
C1045       C  0.21010662  0.89819550  0.66074204    -0.21500
C1046       C  0.19467071  0.86707971  0.64804878    -0.21500
C1047       C  0.19262084  0.87290946  0.73024669    -0.22500
C1048       C  0.20751936  0.90238329  0.71723398    -0.22500
C1049       C  0.16544318  0.65932223  0.66114610    -0.22500
C1050       C  0.16224784  0.69267417  0.64792989    -0.22500
C1051       C  0.19224965  0.78431111  0.73439362    -0.17900
C1052       C  0.20653551  0.66305408  0.68971054    -0.17900
C1053       C  0.18827968  0.77798554  0.64570903    -0.17900
C1054       C  0.25078803  0.88686112  0.68952851    -0.17900
H1055       H  0.19975017  0.68707351  0.74840725     0.15000
H1056       H  0.20293339  0.62069386  0.72361247     0.15000
H1057       H  0.20609786  0.93728291  0.66047043     0.15000
H1058       H  0.17704840  0.87739615  0.63607482     0.15000
H1059       H  0.17732592  0.88390274  0.74253751     0.13300
H1060       H  0.20485568  0.94156081  0.71712726     0.13300
H1061       H  0.16170724  0.62064250  0.65987570     0.13300
H1062       H  0.15406752  0.68488547  0.63456785     0.13300
H1063       H  0.17982417  0.75759423  0.70014312     0.26600
H1064       H  0.23824587  0.79394944  0.67743791     0.26600
N1065       N  0.11561962  0.51615558  0.77775085    -0.36200
N1066       N  0.11291295  0.52580371  0.81600662    -0.56700
N1067       N  0.51481597  0.40374821  0.81948753    -0.36200
N1068       N  0.51673430  0.40455968  0.77985525    -0.56700
C1069       C  0.16234887  0.51639692  0.78287361     0.27400
C1070       C  0.11501876  0.49233552  0.76243697     0.27400
C1071       C  0.51691669  0.41341813  0.83659447     0.27400
C1072       C  0.46750402  0.40225048  0.81530746     0.27400
C1073       C  0.16027034  0.53267074  0.81317655     0.36000
C1074       C  0.10778517  0.51598628  0.83292339     0.36000
C1075       C  0.51895122  0.40814875  0.76253252     0.36000
C1076       C  0.47026430  0.39729892  0.78413051     0.36000
C1077       C  0.19139802  0.48996926  0.77128141    -0.21500
C1078       C  0.16166461  0.47721907  0.75787482    -0.21500
C1079       C  0.47117606  0.40876400  0.84387532    -0.21500
C1080       C  0.43972242  0.40194357  0.83029221    -0.21500
C1081       C  0.18636105  0.52228013  0.82808424    -0.22500
C1082       C  0.15288194  0.51359775  0.84082637    -0.22500
C1083       C  0.47460074  0.39636580  0.75546215    -0.22500
C1084       C  0.44364083  0.38967091  0.76923474    -0.22500
C1085       C  0.17910308  0.54433542  0.79680996    -0.17900
C1086       C  0.55724821  0.43120161  0.75387984    -0.17900
C1087       C  0.45037544  0.41887541  0.79917309    -0.17900
C1088       C  0.55639046  0.43590323  0.84463427    -0.17900
H1089       H  0.23039191  0.48346203  0.77189806     0.15000
H1090       H  0.17281914  0.45938316  0.74605000     0.15000
H1091       H  0.46024223  0.41670296  0.85704593     0.15000
H1092       H  0.40040701  0.40418484  0.83111012     0.15000
H1093       H  0.22533276  0.51879092  0.82948018     0.13300
H1094       H  0.16092705  0.50422505  0.85411034     0.13300
H1095       H  0.46329693  0.39988492  0.74214883     0.13300
H1096       H  0.40450039  0.38763404  0.76837507     0.13300
H1097       H  0.08732005  0.53698271  0.78331286     0.26600
H1098       H  0.54321473  0.40461889  0.81061602     0.26600
N1099       N  0.99567025  0.65877355  0.77996672    -0.36200
N1100       N  0.39345675  0.73624133  0.77728400    -0.56700
N1101       N  0.39890253  0.73388153  0.81644455    -0.36200
N1102       N  0.99521275  0.66459447  0.81868204    -0.56700
C1103       C  0.99263370  0.66039032  0.76250284     0.27400
C1104       C  0.04260322  0.64961891  0.78410045     0.27400
C1105       C  0.35182046  0.74441081  0.81292256     0.27400
C1106       C  0.40039469  0.71462578  0.83253269     0.27400
C1107       C  0.39069393  0.71676708  0.76131334     0.36000
C1108       C  0.34757328  0.74676839  0.78234921     0.36000
C1109       C  0.04272937  0.65608768  0.81540433     0.36000
C1110       C  0.99070554  0.67237282  0.83582014     0.36000
C1111       C  0.03685018  0.64380101  0.75553964    -0.21500
C1112       C  0.06851011  0.63744607  0.76924401    -0.21500
C1113       C  0.32279696  0.72868816  0.82620922    -0.21500
C1114       C  0.35364893  0.71326027  0.83909323    -0.21500
C1115       C  0.34268802  0.71489702  0.75619995    -0.22500
C1116       C  0.31524829  0.73130206  0.77001277    -0.22500
C1117       C  0.06801447  0.65370334  0.83088283    -0.22500
C1118       C  0.03494870  0.66488436  0.84384099    -0.22500
C1119       C  0.43167177  0.70309578  0.75123768    -0.17900
C1120       C  0.06312804  0.66835139  0.79933229    -0.17900
C1121       C  0.44294878  0.69912527  0.84149258    -0.17900
C1122       C  0.33547413  0.76954890  0.79816686    -0.17900
H1123       H  0.04730646  0.64267905  0.74207379     0.15000
H1124       H  0.10742303  0.63175485  0.76822986     0.15000
H1125       H  0.28351793  0.73008068  0.82685098     0.15000
H1126       H  0.34253108  0.70368321  0.85188726     0.15000
H1127       H  0.32875389  0.70284884  0.74398170     0.13300
H1128       H  0.27611284  0.73132387  0.77093663     0.13300
H1129       H  0.10697303  0.65095238  0.83247664     0.13300
H1130       H  0.04330412  0.67136706  0.85728004     0.13300
H1131       H  0.96912330  0.66873031  0.78891420     0.26600
H1132       H  0.42793946  0.74550019  0.80904842     0.26600
N1133       N  0.28967287  0.57120144  0.77453741    -0.36200
N1134       N  0.28970289  0.58197963  0.81336715    -0.56700
N1135       N  0.36450838  0.51366634  0.81636916    -0.36200
N1136       N  0.36593104  0.50080006  0.77624171    -0.56700
C1137       C  0.24276379  0.58343205  0.77796754     0.27400
C1138       C  0.29244718  0.55848788  0.75763826     0.27400
C1139       C  0.36731815  0.53573794  0.83197292     0.27400
C1140       C  0.40908362  0.49485209  0.81267806     0.27400
C1141       C  0.24498915  0.59794783  0.80880450     0.36000
C1142       C  0.29292929  0.58658786  0.83061788     0.36000
C1143       C  0.37150540  0.51589849  0.75976306     0.36000
C1144       C  0.41071158  0.48842739  0.78195026     0.36000
C1145       C  0.21704396  0.58600304  0.76260442    -0.21500
C1146       C  0.24799700  0.56844003  0.74990705    -0.21500
C1147       C  0.41432416  0.53155037  0.83817363    -0.21500
C1148       C  0.44132082  0.50750901  0.82553876    -0.21500
C1149       C  0.22162656  0.61911048  0.82298284    -0.22500
C1150       C  0.25216196  0.61176912  0.83696883    -0.22500
C1151       C  0.41976723  0.51235844  0.75491619    -0.22500
C1152       C  0.44499364  0.49800725  0.76943576    -0.22500
C1153       C  0.22171141  0.57766592  0.79448474    -0.17900
C1154       C  0.33300640  0.53448012  0.74954983    -0.17900
C1155       C  0.41993254  0.46607228  0.79798539    -0.17900
C1156       C  0.32856448  0.56093547  0.84035083    -0.17900
H1157       H  0.17835058  0.59228698  0.76108762     0.15000
H1158       H  0.23721750  0.55812097  0.73707971     0.15000
H1159       H  0.42798806  0.54634369  0.85008083     0.15000
H1160       H  0.48021228  0.50051250  0.82570367     0.15000
H1161       H  0.18428073  0.63243120  0.82355228     0.13300
H1162       H  0.24308215  0.61916182  0.85034818     0.13300
H1163       H  0.43532015  0.52100654  0.74258439     0.13300
H1164       H  0.48400425  0.49499818  0.77067786     0.13300
H1165       H  0.31723325  0.56846206  0.78367195     0.26600
H1166       H  0.33322872  0.50681475  0.80932646     0.26600
N1167       N  0.15572601  0.74800749  0.77889065    -0.36200
N1168       N  0.22935669  0.81518612  0.77989799    -0.56700
N1169       N  0.22798966  0.81700612  0.81868729    -0.36200
N1170       N  0.15331836  0.74710949  0.81860453    -0.56700
C1171       C  0.15255702  0.76687805  0.76276604     0.27400
C1172       C  0.11177679  0.73070864  0.78265186     0.27400
C1173       C  0.27510754  0.82393149  0.81525818     0.27400
C1174       C  0.22389024  0.81044129  0.83589763     0.27400
C1175       C  0.22772208  0.81215099  0.76258337     0.36000
C1176       C  0.27446418  0.82788451  0.78411188     0.36000
C1177       C  0.10858822  0.73702810  0.81303739     0.36000
C1178       C  0.14628401  0.77133419  0.83365278     0.36000
C1179       C  0.10630562  0.76137180  0.75635107    -0.21500
C1180       C  0.07974992  0.74195373  0.76939279    -0.21500
C1181       C  0.29984846  0.83009971  0.83068944    -0.21500
C1182       C  0.26720381  0.82133725  0.84386272    -0.21500
C1183       C  0.27067094  0.82833260  0.75555498    -0.22500
C1184       C  0.30022077  0.83860213  0.76928560    -0.22500
C1185       C  0.07328430  0.75727734  0.82396896    -0.22500
C1186       C  0.09749564  0.77704187  0.83759001    -0.22500
C1187       C  0.19063817  0.78839281  0.75367840    -0.17900
C1188       C  0.09968865  0.70857559  0.79839468    -0.17900
C1189       C  0.18392950  0.78861804  0.84375551    -0.17900
C1190       C  0.29635969  0.81009908  0.79928947    -0.17900
H1191       H  0.09237481  0.77138333  0.74386221     0.15000
H1192       H  0.04090919  0.73830205  0.76928023     0.15000
H1193       H  0.33861862  0.83395625  0.83221587     0.15000
H1194       H  0.27594777  0.81792768  0.85743656     0.15000
H1195       H  0.28235710  0.82671671  0.74222462     0.13300
H1196       H  0.33866614  0.84522045  0.76844071     0.13300
H1197       H  0.03424427  0.75694670  0.82239225     0.13300
H1198       H  0.08128450  0.79534877  0.84865868     0.13300
H1199       H  0.18687943  0.74288649  0.78641893     0.26600
H1200       H  0.20133449  0.81138697  0.80949698     0.26600
N1201       N  0.46388561  0.59029956  0.27727500    -0.36200
N1202       N  0.44469221  0.58380086  0.31567469    -0.56700
N1203       N  0.47720143  0.02385016  0.31970178    -0.36200
N1204       N  0.51028784  0.03885787  0.28342533    -0.56700
C1205       C  0.45305374  0.63647097  0.28202812     0.27400
C1206       C  0.48770924  0.59280201  0.26193963     0.27400
C1207       C  0.44714898  0.01822713  0.33330769     0.27400
C1208       C  0.48753751  0.97892991  0.31366147     0.27400
C1209       C  0.41581618  0.62219018  0.31125067     0.36000
C1210       C  0.44350115  0.58115194  0.33314663     0.36000
C1211       C  0.51927243  0.04813004  0.26659416     0.36000
C1212       C  0.53833616  0.00017644  0.28817710     0.36000
C1213       C  0.47187322  0.66754772  0.26971019    -0.21500
C1214       C  0.49116494  0.63993718  0.25663653    -0.21500
C1215       C  0.43736978  0.97053710  0.33603369    -0.21500
C1216       C  0.46135049  0.94561489  0.32318734    -0.21500
C1217       C  0.39219266  0.64051730  0.32598133    -0.22500
C1218       C  0.41103463  0.61548521  0.33990163    -0.22500
C1219       C  0.55656734  0.01706366  0.26091663    -0.22500
C1220       C  0.56932459  0.98727773  0.27459944    -0.22500
C1221       C  0.42676417  0.65199171  0.29701904    -0.17900
C1222       C  0.48763786  0.07710079  0.25592780    -0.17900
C1223       C  0.52173567  0.96663398  0.30047418    -0.17900
C1224       C  0.42747083  0.05567092  0.34323669    -0.17900
H1225       H  0.47400831  0.70633932  0.27018531     0.15000
H1226       H  0.50998404  0.65313063  0.24540238     0.15000
H1227       H  0.41360984  0.95586340  0.34572056     0.15000
H1228       H  0.45884097  0.90715618  0.32115998     0.15000
H1229       H  0.36913434  0.67310696  0.32685013     0.13300
H1230       H  0.40329532  0.62326464  0.35334897     0.13300
H1231       H  0.56927103  0.01245951  0.24788753     0.13300
H1232       H  0.59299227  0.95511420  0.27374674     0.13300
H1233       H  0.45454759  0.55891467  0.28378421     0.26600
H1234       H  0.49213271  0.05611193  0.31568513     0.26600
N1235       N  0.48530926  0.85214404  0.27909685    -0.36200
N1236       N  0.41912609  0.77786222  0.28383238    -0.56700
N1237       N  0.46022775  0.76586658  0.31937058    -0.36200
N1238       N  0.52617634  0.84244317  0.31445903    -0.56700
C1239       C  0.45571238  0.85523178  0.26509498     0.27400
C1240       C  0.49589359  0.89824329  0.28309730     0.27400
C1241       C  0.45905085  0.72097796  0.31263210     0.27400
C1242       C  0.49313551  0.76279177  0.33228180     0.27400
C1243       C  0.41080346  0.78231619  0.26671482     0.36000
C1244       C  0.39982171  0.73614481  0.28883044     0.36000
C1245       C  0.54675198  0.88379872  0.30976181     0.36000
C1246       C  0.53300114  0.83751539  0.33170070     0.36000
C1247       C  0.44861180  0.90227947  0.25996288    -0.21500
C1248       C  0.47106066  0.92950010  0.27176243    -0.21500
C1249       C  0.49404216  0.69092337  0.32070495    -0.21500
C1250       C  0.51425645  0.71712098  0.33356494    -0.21500
C1251       C  0.38093353  0.74587873  0.26128050    -0.22500
C1252       C  0.37165911  0.71835158  0.27556261    -0.22500
C1253       C  0.57190755  0.90199312  0.32383208    -0.22500
C1254       C  0.56182938  0.87341964  0.33787331    -0.22500
C1255       C  0.43468517  0.81668006  0.25656339    -0.17900
C1256       C  0.52675354  0.91393915  0.29656066    -0.17900
C1257       C  0.51032091  0.80170512  0.34134105    -0.17900
C1258       C  0.42504778  0.70503695  0.30040130    -0.17900
H1259       H  0.42866737  0.91620815  0.24914428     0.15000
H1260       H  0.46764404  0.96824573  0.27168564     0.15000
H1261       H  0.50472938  0.65389027  0.31759885     0.15000
H1262       H  0.54352712  0.70519387  0.34205760     0.15000
H1263       H  0.37032846  0.73590523  0.24844427     0.13300
H1264       H  0.35467614  0.68361480  0.27517663     0.13300
H1265       H  0.58964673  0.93627500  0.32448911     0.13300
H1266       H  0.57236137  0.88003101  0.35108796     0.13300
H1267       H  0.49931762  0.82041246  0.28479638     0.26600
H1268       H  0.43849132  0.79628795  0.31607969     0.26600
N1269       N  0.28566412  0.48159079  0.27863663    -0.36200
N1270       N  0.23709572  0.88513866  0.27793732    -0.56700
N1271       N  0.24132226  0.88904958  0.31677373    -0.36200
N1272       N  0.29848224  0.47967014  0.31714138    -0.56700
C1273       C  0.29603975  0.47450919  0.26166097     0.27400
C1274       C  0.30601742  0.52257884  0.28375222     0.27400
C1275       C  0.23292204  0.84386259  0.31122760     0.27400
C1276       C  0.26558306  0.88504460  0.33191867     0.27400
C1277       C  0.22887055  0.90042535  0.26165743     0.36000
C1278       C  0.19845423  0.86019893  0.28279221     0.36000
C1279       C  0.30238762  0.52739338  0.31438657     0.36000
C1280       C  0.29282375  0.47397437  0.33428317     0.36000
C1281       C  0.32565167  0.51121065  0.25620910    -0.21500
C1282       C  0.33184039  0.54179888  0.27020340    -0.21500
C1283       C  0.25494038  0.81046573  0.32243276    -0.21500
C1284       C  0.27414462  0.83667736  0.33588259    -0.21500
C1285       C  0.18613740  0.88210981  0.25549835    -0.22500
C1286       C  0.16532815  0.85907250  0.26926525    -0.22500
C1287       C  0.30548659  0.55167741  0.33001981    -0.22500
C1288       C  0.29926589  0.51759884  0.34275243    -0.22500
C1289       C  0.25655385  0.93592517  0.25366429    -0.17900
C1290       C  0.28899066  0.54801531  0.29842205    -0.17900
C1291       C  0.27557264  0.92468791  0.34267752    -0.17900
C1292       C  0.19754406  0.83425361  0.29851052    -0.17900
H1293       H  0.33661050  0.51845782  0.24313353     0.15000
H1294       H  0.34860866  0.57662555  0.26993689     0.15000
H1295       H  0.25368683  0.77138218  0.32170770     0.15000
H1296       H  0.29156186  0.82199798  0.34735035     0.15000
H1297       H  0.16967347  0.88764507  0.24296676     0.13300
H1298       H  0.13003645  0.84312181  0.26911103     0.13300
H1299       H  0.30575011  0.59047067  0.33196204     0.13300
H1300       H  0.29494183  0.52526142  0.35638986     0.13300
H1301       H  0.25754057  0.46695280  0.28566357     0.26600
H1302       H  0.22384503  0.92043816  0.31205235     0.26600
N1303       N  0.17630845  0.75672567  0.27335202    -0.36200
N1304       N  0.15237043  0.73097792  0.32105599    -0.56700
N1305       N  0.20934359  0.64405360  0.31742436    -0.36200
N1306       N  0.21031707  0.64766930  0.27822549    -0.56700
C1307       C  0.14824508  0.76576872  0.28738048     0.27400
C1308       C  0.15423967  0.72308265  0.26399476     0.27400
C1309       C  0.19091953  0.64117036  0.33366165     0.27400
C1310       C  0.21853590  0.59818654  0.31197591     0.27400
C1311       C  0.15051636  0.77878772  0.31794988     0.36000
C1312       C  0.16385445  0.72553035  0.33772683     0.36000
C1313       C  0.20158865  0.65056280  0.26097490     0.36000
C1314       C  0.22925793  0.60265705  0.28098635     0.36000
C1315       C  0.10769255  0.73751605  0.28699994    -0.21500
C1316       C  0.11226489  0.70952648  0.27239164    -0.21500
C1317       C  0.18652747  0.59329673  0.33831267    -0.21500
C1318       C  0.20214149  0.56605136  0.32427632    -0.21500
C1319       C  0.15488763  0.80408682  0.33334981    -0.22500
C1320       C  0.16331566  0.76997799  0.34602508    -0.22500
C1321       C  0.21298410  0.60708616  0.25300663    -0.22500
C1322       C  0.22698989  0.57626829  0.26584912    -0.22500
C1323       C  0.16183310  0.79510107  0.30127780    -0.17900
C1324       C  0.18051378  0.69195039  0.25304558    -0.17900
C1325       C  0.24643564  0.58525823  0.29714869    -0.17900
C1326       C  0.18066172  0.68119366  0.34452849    -0.17900
H1327       H  0.07962634  0.73518956  0.29676686     0.15000
H1328       H  0.08975776  0.67957555  0.26909170     0.15000
H1329       H  0.17318895  0.57963008  0.35045835     0.15000
H1330       H  0.20366342  0.52689007  0.32352292     0.15000
H1331       H  0.15910135  0.84258328  0.33494358     0.13300
H1332       H  0.17337218  0.77733109  0.35925562     0.13300
H1333       H  0.20959782  0.59680669  0.23973182     0.13300
H1334       H  0.22934929  0.53792783  0.26421755     0.13300
H1335       H  0.21177694  0.76785211  0.27135237     0.26600
H1336       H  0.22084642  0.67522542  0.31125403     0.26600
O1337       O  0.03150718  0.03181319  0.42221637    -0.72500
O1338       O  0.04058538  0.02069317  0.47466903    -0.73500
O1339       O  0.04031350  0.95169105  0.44723388    -0.62100
O1340       O  0.03119237  0.59828790  0.44839261    -0.70500
O1341       O  0.45396123  0.58352746  0.45142833    -0.70100
O1342       O  0.44683276  0.93352520  0.45051234    -0.61300
O1343       O  0.45059403  0.00635312  0.47633050    -0.73800
O1344       O  0.43484220  0.01163017  0.42563714    -0.72600
Cu1345     Cu  0.04042868  0.02579743  0.44839381     1.04600
Cu1346     Cu  0.44209693  0.00895420  0.45095546     1.04300
C1347       C  0.47037986  0.01555639  0.41529408     0.93700
C1348       C  0.49237608  0.00123225  0.48314734     0.92800
C1349       C  0.48774036  0.90958193  0.44882223     0.85000
C1350       C  0.49474638  0.60480180  0.45055622     0.91200
O1351       O  0.45686524  0.75384506  0.47524355    -0.72500
O1352       O  0.45757165  0.76247059  0.42278892    -0.73500
O1353       O  0.45598135  0.68414382  0.44844203    -0.62100
O1354       O  0.45183241  0.83153465  0.45000213    -0.70500
O1355       O  0.04261705  0.84895137  0.44919322    -0.70100
O1356       O  0.03689933  0.69898387  0.44848805    -0.61300
O1357       O  0.03989511  0.77628905  0.42315738    -0.73800
O1358       O  0.04480705  0.77111616  0.47476175    -0.72600
Cu1359     Cu  0.45279366  0.75790853  0.44910124     1.04600
Cu1360     Cu  0.04392379  0.77356511  0.44886551     1.04300
C1361       C  0.49750395  0.75114846  0.48337418     0.93700
C1362       C  0.49893661  0.76490984  0.41515774     0.92800
C1363       C  0.49597729  0.65920008  0.44936317     0.85000
C1364       C  0.49082922  0.85512344  0.44965371     0.91200
O1365       O  0.25154232  0.96449066  0.47654709    -0.72500
O1366       O  0.27116445  0.95402633  0.42588115    -0.73500
O1367       O  0.25785213  0.53285855  0.45080786    -0.62100
O1368       O  0.26102986  0.88482468  0.45232437    -0.70500
O1369       O  0.18096025  0.88728541  0.44931933    -0.70100
O1370       O  0.17801684  0.53733761  0.44720922    -0.61300
O1371       O  0.19165330  0.95473776  0.42170251    -0.73800
O1372       O  0.17118067  0.96686452  0.47420252    -0.72600
Cu1373     Cu  0.26323828  0.95937611  0.45133054     1.04600
Cu1374     Cu  0.17784739  0.96117831  0.44783161     1.04300
C1375       C  0.20953185  0.96857294  0.48351672     0.93700
C1376       C  0.23522921  0.95037732  0.41568948     0.92800
C1377       C  0.21815627  0.55852913  0.44955829     0.85000
C1378       C  0.22107156  0.86260362  0.45083909     0.91200
O1379       O  0.25601824  0.70475163  0.42438382    -0.72500
O1380       O  0.26178964  0.71234808  0.47691699    -0.73500
O1381       O  0.25904090  0.63438676  0.45113226    -0.62100
O1382       O  0.26074113  0.78287134  0.44998054    -0.70500
O1383       O  0.18026316  0.78675602  0.45125843    -0.70100
O1384       O  0.17852669  0.63813249  0.45192239    -0.61300
O1385       O  0.18107899  0.71536695  0.47739389    -0.73800
O1386       O  0.17568115  0.70986563  0.42644181    -0.72600
Cu1387     Cu  0.26236610  0.70849626  0.45059152     1.04600
Cu1388     Cu  0.17634956  0.71271025  0.45183877     1.04300
C1389       C  0.21399504  0.70407922  0.41728843     0.93700
C1390       C  0.22159122  0.71646601  0.48529168     0.92800
C1391       C  0.21858344  0.61283630  0.45095064     0.85000
C1392       C  0.22077849  0.80824632  0.45071815     0.91200
O1393       O  0.08741348  0.95841655  0.03663023    -0.72500
O1394       O  0.44062223  0.95681343  0.03832397    -0.73500
O1395       O  0.51537627  0.95360770  0.01194287    -0.62100
O1396       O  0.51358024  0.96765977  0.06473793    -0.70500
O1397       O  0.52402497  0.58571664  0.06026174    -0.70100
O1398       O  0.52434686  0.58308632  0.00878661    -0.61300
O1399       O  0.44890483  0.58171364  0.03467380    -0.73800
O1400       O  0.09870499  0.58144644  0.03415913    -0.72600
Cu1401     Cu  0.51445154  0.95599441  0.03842274     1.04600
Cu1402     Cu  0.52392842  0.58550201  0.03459060     1.04300
C1403       C  0.12340685  0.54094953  0.03482729     0.93700
C1404       C  0.42749010  0.54108314  0.03522698     0.92800
C1405       C  0.52630974  0.54228516  0.00114510     0.85000
C1406       C  0.52570551  0.54745687  0.06942261     0.91200
O1407       O  0.36602969  0.77301868  0.03878623    -0.72500
O1408       O  0.01431846  0.77541137  0.03924256    -0.73500
O1409       O  0.44011624  0.77344518  0.01273626    -0.62100
O1410       O  0.44101465  0.77097543  0.06501803    -0.70500
O1411       O  0.44190519  0.69056483  0.06491711    -0.70100
O1412       O  0.44261769  0.69306413  0.01261878    -0.61300
O1413       O  0.01821663  0.69514623  0.03988096    -0.73800
O1414       O  0.36808686  0.69272687  0.03846765    -0.72600
Cu1415     Cu  0.44033142  0.77478942  0.03890407     1.04600
Cu1416     Cu  0.44231671  0.68895764  0.03872373     1.04300
C1417       C  0.34365059  0.73315239  0.03838751     0.93700
C1418       C  0.03968146  0.73548407  0.03934185     0.92800
C1419       C  0.44100553  0.73334607  0.00444020     0.85000
C1420       C  0.44252337  0.73071937  0.07316435     0.91200
O1421       O  0.20031488  0.57888468  0.03521485    -0.72500
O1422       O  0.34752244  0.57872403  0.03612640    -0.73500
O1423       O  0.27575573  0.57910129  0.00925309    -0.62100
O1424       O  0.27194733  0.57135350  0.06219077    -0.70500
O1425       O  0.26144039  0.94755874  0.06121832    -0.70100
O1426       O  0.26656269  0.95280839  0.01022247    -0.61300
O1427       O  0.33909589  0.95340819  0.03657356    -0.73800
O1428       O  0.18880516  0.95441989  0.03504711    -0.72600
Cu1429     Cu  0.27385150  0.57995254  0.03574435     1.04600
Cu1430     Cu  0.26405436  0.94939724  0.03576054     1.04300
C1431       C  0.17778243  0.53940154  0.03446639     0.93700
C1432       C  0.37319147  0.53932998  0.03517052     0.92800
C1433       C  0.27769716  0.53917505  0.00064291     0.85000
C1434       C  0.27216377  0.52864976  0.06879485     0.91200
O1435       O  0.26480463  0.77393080  0.03681264    -0.72500
O1436       O  0.11608618  0.77547411  0.03766655    -0.73500
O1437       O  0.19175971  0.78153158  0.06275596    -0.62100
O1438       O  0.18963578  0.76761994  0.01141895    -0.70500
O1439       O  0.19220364  0.68731316  0.01292141    -0.70100
O1440       O  0.19371930  0.70140472  0.06475128    -0.61300
O1441       O  0.11877335  0.69534226  0.03943571    -0.73800
O1442       O  0.26710201  0.69380420  0.03867766    -0.72600
Cu1443     Cu  0.19045689  0.77737985  0.03701708     1.04600
Cu1444     Cu  0.19300581  0.69170460  0.03902960     1.04300
C1445       C  0.28935726  0.73367601  0.03790280     0.93700
C1446       C  0.09400472  0.73554788  0.03879907     0.92800
C1447       C  0.19329720  0.74320206  0.07192991     0.85000
C1448       C  0.19072411  0.72615095  0.00399550     0.91200
N1449       N  0.47846768  0.52337183  0.20790126    -0.36200
N1450       N  0.05893580  0.58953761  0.20847490    -0.56700
N1451       N  0.06339123  0.60081427  0.16976756    -0.36200
N1452       N  0.48273652  0.53470946  0.16862086    -0.56700
C1453       C  0.45540955  0.04493265  0.22685697     0.27400
C1454       C  0.43272103  0.51850667  0.20237707     0.27400
C1455       C  0.11062949  0.60268956  0.17400031     0.27400
C1456       C  0.06136758  0.59587426  0.15244063     0.27400
C1457       C  0.04905791  0.08126789  0.22463982     0.36000
C1458       C  0.10450429  0.60134012  0.20489175     0.36000
C1459       C  0.43610809  0.52416422  0.17160859     0.36000
C1460       C  0.48359295  0.55478659  0.15270787     0.36000
C1461       C  0.40762781  0.04008407  0.23194981    -0.21500
C1462       C  0.38357391  0.02020219  0.21822871    -0.21500
C1463       C  0.13811836  0.60824763  0.15914677    -0.21500
C1464       C  0.10685897  0.60312890  0.14541601    -0.21500
C1465       C  0.09022325  0.10195997  0.23115490    -0.22500
C1466       C  0.12153622  0.10592905  0.21721317    -0.22500
C1467       C  0.40697200  0.54113070  0.15818908    -0.22500
C1468       C  0.43752519  0.55741383  0.14567612    -0.22500
C1469       C  0.49112453  0.07101494  0.23622196    -0.17900
C1470       C  0.42049336  0.49863288  0.18624327    -0.17900
C1471       C  0.52606286  0.56798968  0.14403659    -0.17900
C1472       C  0.12848532  0.58484094  0.18990371    -0.17900
H1473       H  0.39077970  0.05148582  0.24389580     0.15000
H1474       H  0.34486841  0.01561389  0.21732054     0.15000
H1475       H  0.17737545  0.60884496  0.15828553     0.15000
H1476       H  0.11767931  0.59891727  0.13204259     0.15000
H1477       H  0.09819004  0.10961731  0.24453993     0.13300
H1478       H  0.15893051  0.11592483  0.21739276     0.13300
H1479       H  0.36775962  0.54165126  0.15745134     0.13300
H1480       H  0.42695289  0.57152173  0.13314670     0.13300
H1481       H  0.50915175  0.50986822  0.20127986     0.26600
H1482       H  0.03491098  0.59811645  0.17849129     0.26600
N1483       N  0.41359264  0.76690177  0.21262289    -0.36200
N1484       N  0.98271726  0.85079238  0.21121313    -0.56700
N1485       N  0.02867795  0.79088048  0.16709311    -0.36200
N1486       N  0.43540356  0.72866151  0.17610061    -0.56700
C1487       C  0.40369230  0.79593521  0.22643695     0.27400
C1488       C  0.37070699  0.75685375  0.20546776     0.27400
C1489       C  0.02199091  0.82908546  0.17779743     0.27400
C1490       C  0.99281713  0.79252260  0.15532687     0.27400
C1491       C  0.97819829  0.84944212  0.22854142     0.36000
C1492       C  0.02984722  0.85674265  0.20763206     0.36000
C1493       C  0.40124133  0.69997441  0.18247796     0.36000
C1494       C  0.44579511  0.71250810  0.15990553     0.36000
C1495       C  0.35432447  0.80525289  0.22796855    -0.21500
C1496       C  0.33351206  0.78255192  0.21422285    -0.21500
C1497       C  0.98169322  0.85683324  0.17254919    -0.21500
C1498       C  0.96334605  0.83365626  0.15821096    -0.21500
C1499       C  0.02241110  0.86002200  0.23608829    -0.22500
C1500       C  0.05494886  0.86547735  0.22274638    -0.22500
C1501       C  0.39486541  0.66152205  0.17115458    -0.22500
C1502       C  0.42237560  0.67032041  0.15666726    -0.22500
C1503       C  0.43957431  0.81453958  0.23714297    -0.17900
C1504       C  0.36387455  0.71907491  0.19338775    -0.17900
C1505       C  0.46854140  0.74170379  0.14758357    -0.17900
C1506       C  0.05062366  0.83571132  0.19269220    -0.17900
H1507       H  0.33527046  0.82498103  0.23814780     0.15000
H1508       H  0.29485041  0.78251214  0.21174444     0.15000
H1509       H  0.96579456  0.88864865  0.17889318     0.15000
H1510       H  0.92858677  0.84203419  0.15219537     0.15000
H1511       H  0.03279027  0.85817971  0.24948707     0.13300
H1512       H  0.09391600  0.86789225  0.22416222     0.13300
H1513       H  0.36707398  0.63490500  0.17195382     0.18100
H1514       H  0.42073193  0.65160346  0.14446236     0.13300
H1515       H  0.44737983  0.75078714  0.20940046     0.26600
H1516       H  0.05226583  0.76086829  0.16913055     0.26600
N1517       N  0.30382367  0.92736074  0.20771109    -0.36200
N1518       N  0.31310883  0.46078398  0.16632413    -0.56700
N1519       N  0.22706744  0.51443253  0.16921829    -0.36200
N1520       N  0.22753581  0.50017292  0.20845507    -0.56700
C1521       C  0.36120976  0.44238717  0.20024838     0.27400
C1522       C  0.29872799  0.92619887  0.22505815     0.27400
C1523       C  0.22476191  0.49840448  0.15267045     0.27400
C1524       C  0.18104743  0.51941925  0.17502834     0.27400
C1525       C  0.36005264  0.44954652  0.16919741     0.36000
C1526       C  0.30770013  0.46642603  0.14924303     0.36000
C1527       C  0.21798578  0.96819606  0.22638774     0.36000
C1528       C  0.18325586  0.52155569  0.20609066     0.36000
C1529       C  0.37735163  0.91581273  0.21925511    -0.21500
C1530       C  0.34353244  0.91627909  0.23246507    -0.21500
C1531       C  0.17694792  0.49234011  0.14799097    -0.21500
C1532       C  0.14927232  0.50388787  0.16241791    -0.21500
C1533       C  0.38408463  0.44218196  0.15353516    -0.22500
C1534       C  0.35051690  0.45319496  0.14073154    -0.22500
C1535       C  0.17437273  0.98150077  0.23413648    -0.22500
C1536       C  0.14641467  0.00281988  0.22147710    -0.22500
C1537       C  0.38128884  0.46146659  0.18505515    -0.17900
C1538       C  0.25651071  0.94133711  0.23437253    -0.17900
C1539       C  0.16746143  0.54380916  0.19046022    -0.17900
C1540       C  0.26535121  0.48763535  0.14206146    -0.17900
H1541       H  0.41647642  0.91372731  0.22051714     0.15000
H1542       H  0.35086998  0.91335388  0.24610822     0.15000
H1543       H  0.16367317  0.47964119  0.13570202     0.15000
H1544       H  0.11002450  0.50338806  0.16329285     0.15000
H1545       H  0.42277464  0.43584234  0.15159420     0.13300
H1546       H  0.35787168  0.45537296  0.12702140     0.13300
H1547       H  0.16268768  0.97385548  0.24712315     0.13300
H1548       H  0.10794940  0.00892524  0.22215783     0.13300
H1549       H  0.28590720  0.45308708  0.19525431     0.26600
H1550       H  0.25761584  0.52674494  0.17561985     0.26600
N1551       N  0.23925985  0.69713633  0.20826209    -0.36200
N1552       N  0.15395110  0.75892055  0.21155819    -0.56700
N1553       N  0.15771275  0.77343276  0.17338073    -0.36200
N1554       N  0.24457267  0.71475239  0.17011431    -0.56700
C1555       C  0.23198643  0.69417083  0.22558240     0.27400
C1556       C  0.28712550  0.68865394  0.20521208     0.27400
C1557       C  0.12965123  0.81125845  0.17902337     0.27400
C1558       C  0.16820022  0.78182632  0.15666009     0.27400
C1559       C  0.14838995  0.72988323  0.22544618     0.36000
C1560       C  0.10889057  0.77537079  0.20702809     0.36000
C1561       C  0.29173643  0.71820537  0.17435582     0.36000
C1562       C  0.24051425  0.73060803  0.15360929     0.36000
C1563       C  0.27547053  0.68017551  0.23347225    -0.21500
C1564       C  0.30979379  0.67532949  0.22062177    -0.21500
C1565       C  0.12419653  0.84522014  0.16590219    -0.21500
C1566       C  0.14717770  0.82581845  0.15156570    -0.21500
C1567       C  0.09956369  0.72815853  0.22970068    -0.22500
C1568       C  0.07456668  0.75617875  0.21788963    -0.22500
C1569       C  0.31670120  0.73797357  0.16057284    -0.22500
C1570       C  0.28509052  0.74297308  0.14719757    -0.22500
C1571       C  0.18716652  0.70515564  0.23424661    -0.17900
C1572       C  0.31281447  0.70495202  0.19047778    -0.17900
C1573       C  0.19809658  0.75112462  0.14640795    -0.17900
C1574       C  0.09909790  0.80913355  0.19360745    -0.17900
H1575       H  0.28304286  0.67698025  0.24712344     0.15000
H1576       H  0.34830454  0.66814410  0.22269905     0.15000
H1577       H  0.10218630  0.87852980  0.16618958     0.15000
H1578       H  0.14807966  0.84264895  0.13900134     0.15000
H1579       H  0.08305893  0.70711471  0.23966527     0.13300
H1580       H  0.03550733  0.76109009  0.21725088     0.13300
H1581       H  0.35304405  0.75096382  0.16021825     0.13300
H1582       H  0.29255109  0.76126189  0.13518045     0.13300
H1583       H  0.21326964  0.70616296  0.19898217     0.26600
H1584       H  0.16249860  0.74008325  0.17958215     0.26600
O1585       O  0.09811807  0.94631802  0.95042382    -0.72500
O1586       O  0.44510207  0.94930556  0.95047310    -0.73500
O1587       O  0.52102777  0.93744303  0.92532738    -0.62100
O1588       O  0.51868977  0.94824733  0.97643722    -0.70500
O1589       O  0.52727012  0.57702804  0.97237823    -0.70100
O1590       O  0.53343086  0.55115334  0.91969968    -0.61300
O1591       O  0.45702422  0.56755216  0.94537490    -0.73800
O1592       O  0.10501116  0.57667243  0.94838608    -0.72600
Cu1593     Cu  0.52000681  0.94178918  0.95085416     1.04600
Cu1594     Cu  0.53009997  0.56951644  0.94579326     1.04300
C1595       C  0.12987999  0.53666060  0.94853844     0.93700
C1596       C  0.43442801  0.52881748  0.94799287     0.92800
C1597       C  0.53604094  0.50620101  0.91511533     0.85000
C1598       C  0.52854669  0.53945587  0.98222771     0.91200
O1599       O  0.43803412  0.76399198  0.92385506    -0.72500
O1600       O  0.43784877  0.77239636  0.97664566    -0.73500
O1601       O  0.01247546  0.76866066  0.95112836    -0.62100
O1602       O  0.36384320  0.76850516  0.95033118    -0.70500
O1603       O  0.36728150  0.68832054  0.95145452    -0.70100
O1604       O  0.01554588  0.68853796  0.95280817    -0.61300
O1605       O  0.44169462  0.69207293  0.97753397    -0.73800
O1606       O  0.44313150  0.68402033  0.92585871    -0.72600
Cu1607     Cu  0.43765670  0.77189852  0.95022416     1.04600
Cu1608     Cu  0.44231958  0.68626575  0.95171611     1.04300
C1609       C  0.44080363  0.72212632  0.91656762     0.93700
C1610       C  0.44012352  0.73286517  0.98532547     0.92800
C1611       C  0.03745449  0.72870030  0.95179283     0.85000
C1612       C  0.34206744  0.72842879  0.95083592     0.91200
O1613       O  0.27301731  0.96161758  0.92146393    -0.72500
O1614       O  0.27053070  0.95375425  0.97469032    -0.73500
O1615       O  0.19865362  0.95235182  0.94793103    -0.62100
O1616       O  0.34494847  0.95422853  0.94843290    -0.70500
O1617       O  0.35658875  0.57269042  0.94806575    -0.70100
O1618       O  0.20656819  0.57725985  0.94774661    -0.61300
O1619       O  0.28018560  0.57845634  0.97353469    -0.73800
O1620       O  0.28382687  0.57770493  0.92225554    -0.72600
Cu1621     Cu  0.27191980  0.95258750  0.94807871     1.04600
Cu1622     Cu  0.28160130  0.57926041  0.94786198     1.04300
C1623       C  0.28822677  0.53870415  0.91346463     0.93700
C1624       C  0.27944953  0.53861901  0.98168916     0.92800
C1625       C  0.18429137  0.53712094  0.94767179     0.85000
C1626       C  0.38001677  0.53142078  0.94807608     0.91200
O1627       O  0.18714265  0.77755546  0.92688212    -0.72500
O1628       O  0.18872101  0.76590185  0.97742347    -0.73500
O1629       O  0.26282605  0.76928757  0.95184898    -0.62100
O1630       O  0.11349746  0.76961832  0.95234364    -0.70500
O1631       O  0.11700307  0.68958561  0.95007983    -0.70100
O1632       O  0.26529200  0.68928179  0.94952069    -0.61300
O1633       O  0.19175098  0.68556954  0.97620015    -0.73800
O1634       O  0.18993740  0.69805266  0.92314945    -0.72600
Cu1635     Cu  0.18799835  0.77305737  0.95218774     1.04600
Cu1636     Cu  0.19113903  0.68760251  0.94961923     1.04300
C1637       C  0.18779079  0.74111291  0.91681044     0.93700
C1638       C  0.19036227  0.72511087  0.98499631     0.92800
C1639       C  0.28756400  0.72898231  0.95072657     0.85000
C1640       C  0.09181024  0.72932643  0.95138777     0.91200
O1641       O  0.45795770  0.56495223  0.53878779    -0.72500
O1642       O  0.45976484  0.91640015  0.53655007    -0.73500
O1643       O  0.46856306  0.98467647  0.56389298    -0.62100
O1644       O  0.45634660  0.99433465  0.51126004    -0.70500
O1645       O  0.04402753  0.00953344  0.50969310    -0.70100
O1646       O  0.05463417  0.00241512  0.56056259    -0.61300
O1647       O  0.04611949  0.93107317  0.53478862    -0.73800
O1648       O  0.04506153  0.58042324  0.53386956    -0.72600
Cu1649     Cu  0.45778237  0.98988653  0.53763576     1.04600
Cu1650     Cu  0.05024856  0.00614580  0.53517351     1.04300
C1651       C  0.49782613  0.58686400  0.53729446     0.93700
C1652       C  0.49951088  0.89107528  0.53577794     0.92800
C1653       C  0.01753477  0.00035283  0.57031503     0.85000
C1654       C  0.49526809  0.99499282  0.50203217     0.91200
O1655       O  0.04359660  0.68211503  0.53536750    -0.72500
O1656       O  0.04310394  0.82959596  0.53851735    -0.73500
O1657       O  0.03517231  0.74857768  0.56347673    -0.62100
O1658       O  0.04547786  0.76163135  0.51073050    -0.70500
O1659       O  0.45712095  0.74313274  0.50984757    -0.70100
O1660       O  0.44911058  0.73894120  0.56034600    -0.61300
O1661       O  0.45696983  0.81565778  0.53561057    -0.73800
O1662       O  0.45610481  0.66586693  0.53507662    -0.72600
Cu1663     Cu  0.04476207  0.75556962  0.53712427     1.04600
Cu1664     Cu  0.45227646  0.74105359  0.53516591     1.04300
C1665       C  0.49670091  0.64124397  0.53615376     0.93700
C1666       C  0.49781792  0.83676644  0.53650510     0.92800
C1667       C  0.99226160  0.74730865  0.57008011     0.85000
C1668       C  0.49785225  0.74487187  0.50221142     0.91200
O1669       O  0.26921563  0.47945584  0.55958058    -0.72500
O1670       O  0.24668137  0.47860813  0.50948383    -0.73500
O1671       O  0.25536041  0.55417232  0.53521007    -0.62100
O1672       O  0.25424415  0.90500861  0.53593971    -0.70500
O1673       O  0.17405347  0.90830150  0.53860796    -0.70100
O1674       O  0.17533649  0.55611466  0.53839948    -0.61300
O1675       O  0.16650651  0.47865905  0.51215250    -0.73800
O1676       O  0.19025669  0.48470185  0.56504493    -0.72600
Cu1677     Cu  0.25930613  0.47929557  0.53452223     1.04600
Cu1678     Cu  0.17422355  0.48206112  0.53886785     1.04300
C1679       C  0.23456492  0.48350307  0.57040685     0.93700
C1680       C  0.20811575  0.97515547  0.50245739     0.92800
C1681       C  0.21508049  0.57860923  0.53736275     0.85000
C1682       C  0.21403103  0.88316388  0.53720073     0.91200
O1683       O  0.25422782  0.65524035  0.53974404    -0.72500
O1684       O  0.25392498  0.80365929  0.53786021    -0.73500
O1685       O  0.24760246  0.73442229  0.56504773    -0.62100
O1686       O  0.25954639  0.72453574  0.51294401    -0.70500
O1687       O  0.17892250  0.72745358  0.51159826    -0.70100
O1688       O  0.16727191  0.73729711  0.56307032    -0.61300
O1689       O  0.17352408  0.80675531  0.53628794    -0.73800
O1690       O  0.17381996  0.65774385  0.53820136    -0.72600
Cu1691     Cu  0.25658464  0.72934125  0.53903266     1.04600
Cu1692     Cu  0.17067322  0.73234883  0.53722946     1.04300
C1693       C  0.21430643  0.63301964  0.53856169     0.93700
C1694       C  0.21377851  0.82869848  0.53707703     0.92800
C1695       C  0.20567144  0.73929283  0.57223548     0.85000
C1696       C  0.22036736  0.72310177  0.50415206     0.91200
C1697       C  0.18271808  0.70636154  0.10087384    -0.20900
C1698       C  0.19420273  0.74683119  0.09096515    -0.08900
C1699       C  0.20706081  0.78971067  0.09946283     0.29900
C1700       C  0.20762167  0.79183747  0.11751666    -0.20900
C1701       C  0.19469614  0.75160557  0.12731261    -0.08900
C1702       C  0.18335656  0.70863783  0.11882991     0.29900
F1703       F  0.17414214  0.66833399  0.12799420    -0.19500
H1704       H  0.17336120  0.67268579  0.09473438     0.18300
H1705       H  0.21943247  0.82431660  0.12384476     0.18300
F1706       F  0.22052561  0.82895978  0.09039255    -0.19400
C1707       C  0.27804095  0.55593930  0.09985220    -0.20900
C1708       C  0.26765507  0.52000030  0.08768698    -0.08900
C1709       C  0.27200551  0.93103049  0.09677472     0.29900
C1710       C  0.26868083  0.92167801  0.11444300    -0.20900
C1711       C  0.26369837  0.49956488  0.12342456    -0.08900
C1712       C  0.27630187  0.54576160  0.11760656     0.29900
F1713       F  0.28815385  0.58054654  0.12910931    -0.19500
H1714       H  0.28863595  0.59139535  0.09563406     0.18300
H1715       H  0.28107341  0.88655053  0.11925380     0.18300
F1716       F  0.29194395  0.89567923  0.08647652    -0.19400
C1717       C  0.49416678  0.73953443  0.09914841    -0.20900
C1718       C  0.44831140  0.73096222  0.09215932    -0.08900
C1719       C  0.40885129  0.72488046  0.10339817     0.29900
C1720       C  0.41538053  0.72810777  0.12136653    -0.20900
C1721       C  0.46152914  0.73651014  0.12846475    -0.08900
C1722       C  0.50086633  0.74220666  0.11705886     0.29900
F1723       F  0.54600336  0.75013880  0.12323480    -0.19500
H1724       H  0.52497966  0.74432417  0.09065636     0.18300
H1725       H  0.89950420  0.70567717  0.13143112     0.18300
F1726       F  0.88104473  0.69263791  0.09903727    -0.19400
C1727       C  0.02052310  0.51755949  0.09939153    -0.20900
C1728       C  0.52710227  0.55249280  0.08853420    -0.08900
C1729       C  0.53671754  0.59749196  0.09636122     0.29900
C1730       C  0.53679496  0.60234378  0.11435083    -0.20900
C1731       C  0.52742704  0.56267481  0.12489932    -0.08900
C1732       C  0.01872451  0.52435329  0.11725283     0.29900
F1733       F  0.97366308  0.96686551  0.12855670    -0.19500
H1734       H  0.97954876  0.95514521  0.09540116     0.18300
H1735       H  0.54385633  0.63720071  0.12008247     0.18300
F1736       F  0.54653676  0.63688865  0.08669145    -0.19400
C1737       C  0.23837057  0.68415470  0.36922584    -0.20900
C1738       C  0.19079006  0.67833967  0.36319510    -0.08900
C1739       C  0.15212714  0.67878173  0.37491733     0.29900
C1740       C  0.16064615  0.68630981  0.39240367    -0.20900
C1741       C  0.20779635  0.69456744  0.39857508    -0.08900
C1742       C  0.24702120  0.69216279  0.38683448     0.29900
F1743       F  0.29321596  0.69888177  0.39219813    -0.19500
H1744       H  0.26842997  0.68470937  0.36016331     0.18300
H1745       H  0.12975118  0.68647549  0.40110081     0.18300
F1746       F  0.10584625  0.67392895  0.36931487    -0.19400
C1747       C  0.30315018  0.92299355  0.37342546    -0.20900
C1748       C  0.26514109  0.92239893  0.36149375    -0.08900
C1749       C  0.21663143  0.42910853  0.36666082     0.29900
C1750       C  0.20560753  0.43695475  0.38429594    -0.20900
C1751       C  0.24524161  0.93974923  0.39701357    -0.08900
C1752       C  0.29351540  0.93094189  0.39099641     0.29900
F1753       F  0.33185476  0.93061180  0.40199166    -0.19500
H1754       H  0.34050402  0.91887561  0.36902516     0.18300
H1755       H  0.16800765  0.43688301  0.38846245     0.18300
F1756       F  0.17966798  0.42346836  0.35534603    -0.19400
C1757       C  0.55007573  0.79747523  0.37080792    -0.20900
C1758       C  0.50813506  0.79849544  0.36057664    -0.08900
C1759       C  0.46311376  0.78939109  0.36850728     0.29900
C1760       C  0.46038170  0.77822535  0.38609620    -0.20900
C1761       C  0.50235991  0.77604767  0.39633170    -0.08900
C1762       C  0.54726281  0.78711704  0.38852770     0.29900
F1763       F  0.08634788  0.77137988  0.39407552    -0.19500
H1764       H  0.07680923  0.78801419  0.36142019     0.18300
H1765       H  0.42526433  0.77093129  0.39166572     0.18300
F1766       F  0.42156633  0.79031902  0.35906120    -0.19400
C1767       C  0.52415423  0.52982060  0.38743989    -0.20900
C1768       C  0.45919218  0.02718215  0.39683963    -0.08900
C1769       C  0.41034412  0.03311837  0.39108656     0.29900
C1770       C  0.39978199  0.04578385  0.37393798    -0.20900
C1771       C  0.43730259  0.05301360  0.36212847    -0.08900
C1772       C  0.52047382  0.54077110  0.36987002     0.29900
F1773       F  0.04467896  0.55954214  0.35678039    -0.19500
H1774       H  0.04788365  0.54167217  0.38951584     0.18300
H1775       H  0.36230338  0.04814489  0.36972661     0.18300
F1776       F  0.37237582  0.02631331  0.40192937    -0.19400
C1777       C  0.19014319  0.72738956  0.86758193    -0.20900
C1778       C  0.18423009  0.77615343  0.86239719    -0.08900
C1779       C  0.17832704  0.81221650  0.87497344     0.29900
C1780       C  0.17882286  0.79989868  0.89244648    -0.20900
C1781       C  0.18576584  0.75126248  0.89788783    -0.08900
C1782       C  0.19115910  0.71488073  0.88517484     0.29900
F1783       F  0.19795988  0.66761578  0.88964964    -0.19500
H1784       H  0.19454073  0.69906357  0.85793429     0.18300
H1785       H  0.17393564  0.82900211  0.90176417     0.18300
F1786       F  0.17176113  0.85935688  0.87034612    -0.19400
C1787       C  0.31651464  0.58648181  0.88836565    -0.20900
C1788       C  0.29857500  0.54279783  0.89467016    -0.08900
C1789       C  0.29392399  0.50393229  0.88306741     0.29900
C1790       C  0.30476261  0.50987200  0.86546478    -0.20900
C1791       C  0.32160724  0.55405606  0.85925329    -0.08900
C1792       C  0.32880712  0.59156709  0.87099318     0.29900
F1793       F  0.34925386  0.63255660  0.86579438    -0.19500
H1794       H  0.32237405  0.61662954  0.89699918     0.18300
H1795       H  0.29948218  0.48013174  0.85659662     0.18300
F1796       F  0.27839247  0.46060565  0.88862967    -0.19400
C1797       C  0.93547371  0.74460154  0.86941544    -0.20900
C1798       C  0.44325910  0.70411272  0.86080328    -0.08900
C1799       C  0.45562778  0.66514090  0.87179472     0.29900
C1800       C  0.45494847  0.67150730  0.88979249    -0.20900
C1801       C  0.44160526  0.71672344  0.89733152    -0.08900
C1802       C  0.93399635  0.75282524  0.88732269     0.29900
F1803       F  0.92622750  0.79880944  0.89321029    -0.19500
H1804       H  0.93053628  0.77508783  0.86072317     0.18300
H1805       H  0.46483734  0.64071303  0.89786034     0.18300
F1806       F  0.46726999  0.62062992  0.86519490    -0.19400
C1807       C  0.54626858  0.42201372  0.87619327    -0.20900
C1808       C  0.55137603  0.45441507  0.86262008    -0.08900
C1809       C  0.06973191  0.55554835  0.86857560     0.29900
C1810       C  0.06005885  0.56191754  0.88614043    -0.20900
C1811       C  0.53973383  0.48937197  0.89683932    -0.08900
C1812       C  0.54024913  0.43892559  0.89305661     0.29900
F1813       F  0.48755570  0.88832366  0.89945354    -0.19500
H1814       H  0.54677693  0.38336447  0.87368925     0.18300
H1815       H  0.06660259  0.59665222  0.89205891     0.18300
F1816       F  0.08979708  0.59196031  0.85979843    -0.19400
C1817       C  0.23750449  0.75793894  0.61960389    -0.20900
C1818       C  0.19257283  0.77390543  0.62661571    -0.08900
C1819       C  0.15172894  0.77715347  0.61581710     0.29900
C1820       C  0.15621569  0.76576587  0.59820381    -0.20900
C1821       C  0.20125510  0.74954625  0.59110872    -0.08900
C1822       C  0.24191071  0.74555680  0.60210859     0.29900
F1823       F  0.28570919  0.72851539  0.59612432    -0.19500
H1824       H  0.26898507  0.75330791  0.62790923     0.18300
H1825       H  0.12428384  0.76956262  0.59010993     0.18300
F1826       F  0.10734622  0.78969192  0.62239057    -0.19400
C1827       C  0.21406067  0.50641605  0.60126484    -0.20900
C1828       C  0.24783497  0.48839475  0.58899378    -0.08900
C1829       C  0.28090598  0.00208398  0.59544716     0.29900
C1830       C  0.28929164  0.01623210  0.61246920    -0.20900
C1831       C  0.27658785  0.50386857  0.62370116    -0.08900
C1832       C  0.22807036  0.51368743  0.61848768     0.29900
F1833       F  0.19401918  0.52950808  0.63013746    -0.19500
H1834       H  0.17695099  0.51537172  0.59749230     0.18300
H1835       H  0.32639703  0.01843236  0.61697803     0.18300
F1836       F  0.32024035  0.99189653  0.58526323    -0.19400
C1837       C  0.41758525  0.70832368  0.61175856    -0.20900
C1838       C  0.96504129  0.70482053  0.62304580    -0.08900
C1839       C  0.01263630  0.70209014  0.61621051     0.29900
C1840       C  0.02172944  0.71650756  0.59913576    -0.20900
C1841       C  0.98363312  0.73428140  0.58856676    -0.08900
C1842       C  0.42751906  0.71841827  0.59452126     0.29900
F1843       F  0.38903486  0.72395578  0.58367477    -0.19500
H1844       H  0.38013207  0.70638063  0.61599468     0.18300
H1845       H  0.05852548  0.71347119  0.59417556     0.18300
F1846       F  0.05053660  0.68647672  0.62616700    -0.19400
C1847       C  0.07526972  0.47172931  0.59233935    -0.20900
C1848       C  0.02606477  0.98976346  0.58881423    -0.08900
C1849       C  0.48455754  0.96363987  0.60083323     0.29900
C1850       C  0.49612410  0.95227419  0.61804905    -0.20900
C1851       C  0.04638013  0.96917467  0.62393383    -0.08900
C1852       C  0.08722280  0.46378415  0.60969451     0.29900
F1853       F  0.13189429  0.44493719  0.61384380    -0.19500
H1854       H  0.10253226  0.46276917  0.58261458     0.18300
H1855       H  0.46688955  0.94829093  0.62728321     0.18300
F1856       F  0.43708725  0.96771742  0.59614725    -0.19400
N1857       N  0.02171937  0.99401001  0.70774060    -0.36200
N1858       N  0.57462963  0.98669312  0.66831488    -0.56700
N1859       N  0.51128916  0.40067748  0.67044431    -0.36200
N1860       N  0.05908455  0.43420805  0.70756611    -0.56700
C1861       C  0.01237559  0.04114933  0.70456424     0.27400
C1862       C  0.04216457  0.99044156  0.72361354     0.27400
C1863       C  0.52250991  0.40523179  0.65339895     0.27400
C1864       C  0.50420854  0.35338734  0.67354619     0.27400
C1865       C  0.57360351  0.03425603  0.67201903     0.36000
C1866       C  0.57612261  0.98268522  0.65106013     0.36000
C1867       C  0.07200485  0.43645048  0.72440829     0.36000
C1868       C  0.05334974  0.38696015  0.70412007     0.36000
C1869       C  0.02767463  0.06862662  0.71843410    -0.21500
C1870       C  0.04528154  0.03634038  0.73072906    -0.21500
C1871       C  0.52239342  0.36028647  0.64553730    -0.21500
C1872       C  0.51284962  0.32739590  0.65835093    -0.21500
C1873       C  0.58278739  0.06051543  0.65726553    -0.22500
C1874       C  0.58552635  0.02747414  0.64384294    -0.22500
C1875       C  0.07812418  0.39082410  0.73131084    -0.22500
C1876       C  0.06762243  0.35904577  0.71822800    -0.22500
C1877       C  0.54457658  0.05052656  0.68583573    -0.17900
C1878       C  0.05832807  0.94663070  0.73152356    -0.17900
C1879       C  0.02993749  0.37009960  0.68917939    -0.17900
C1880       C  0.53585623  0.44830794  0.64497044    -0.17900
H1881       H  0.02765685  0.10773034  0.71936918     0.15000
H1882       H  0.06075196  0.04577834  0.74306258     0.15000
H1883       H  0.53162197  0.35166095  0.63225284     0.15000
H1884       H  0.51444231  0.28852372  0.65670205     0.15000
H1885       H  0.57925402  0.09948708  0.65587818     0.13300
H1886       H  0.58520494  0.03703134  0.63030581     0.13300
H1887       H  0.08918599  0.38209361  0.74435139     0.13300
H1888       H  0.06781151  0.31996985  0.71918158     0.13300
H1889       H  0.00958567  0.96645145  0.69983122     0.26600
H1890       H  0.50382640  0.42827371  0.67934342     0.26600
N1891       N  0.94358521  0.16827758  0.70667477    -0.36200
N1892       N  0.45439890  0.12905490  0.66523488    -0.56700
N1893       N  0.45109817  0.22657954  0.67059214    -0.36200
N1894       N  0.95905685  0.26801193  0.70845209    -0.56700
C1895       C  0.93871364  0.12145516  0.70283830     0.27400
C1896       C  0.93192338  0.17443622  0.72348450     0.27400
C1897       C  0.43460381  0.22537573  0.65414254     0.27400
C1898       C  0.43913028  0.27051816  0.67701995     0.27400
C1899       C  0.47319354  0.08392516  0.66699654     0.36000
C1900       C  0.45487758  0.13998081  0.64837318     0.36000
C1901       C  0.94784276  0.26246653  0.72531102     0.36000
C1902       C  0.97364043  0.31349626  0.70619377     0.36000
C1903       C  0.92255366  0.09690509  0.71715778    -0.21500
C1904       C  0.91842759  0.13050785  0.73031286    -0.21500
C1905       C  0.41066991  0.26907007  0.65023583    -0.21500
C1906       C  0.41306713  0.29755066  0.66488244    -0.21500
C1907       C  0.47865838  0.06289018  0.65082947    -0.22500
C1908       C  0.46811495  0.09905071  0.63885295    -0.22500
C1909       C  0.95170605  0.30638037  0.73377880    -0.22500
C1910       C  0.96667435  0.33906811  0.72153797    -0.22500
C1911       C  0.95737589  0.10045073  0.68763452    -0.17900
C1912       C  0.93675815  0.21756237  0.73306788    -0.17900
C1913       C  0.99315671  0.33020287  0.69029962    -0.17900
C1914       C  0.44619440  0.18760586  0.64234944    -0.17900
H1915       H  0.91719704  0.05842447  0.71818998     0.15000
H1916       H  0.90840098  0.12310842  0.74353859     0.15000
H1917       H  0.39515482  0.28005299  0.63796494     0.15000
H1918       H  0.40143470  0.33526375  0.66599224     0.15000
H1919       H  0.48968821  0.02592650  0.64797588     0.13300
H1920       H  0.47122570  0.09595266  0.62495154     0.13300
H1921       H  0.94470075  0.31403826  0.74729546     0.13300
H1922       H  0.97191459  0.37714960  0.72375247     0.13300
H1923       H  0.96167120  0.19140602  0.69867858     0.26600
H1924       H  0.98883059  0.23789162  0.67736978     0.26600
N1925       N  0.78995975  0.06129454  0.70921933    -0.36200
N1926       N  0.76341320  0.50077175  0.70868159    -0.56700
N1927       N  0.74523393  0.49404973  0.67169400    -0.36200
N1928       N  0.78731154  0.06181058  0.67052097    -0.56700
C1929       C  0.80958822  0.06336325  0.72524367     0.27400
C1930       C  0.77282095  0.10627881  0.70535194     0.27400
C1931       C  0.76356663  0.45067315  0.67663515     0.27400
C1932       C  0.75845070  0.50008653  0.65507316     0.27400
C1933       C  0.76932122  0.51158315  0.72552131     0.36000
C1934       C  0.76076517  0.45225698  0.70748374     0.36000
C1935       C  0.76941124  0.10642544  0.67453051     0.36000
C1936       C  0.80541539  0.06443144  0.65431621     0.36000
C1937       C  0.80544492  0.11029295  0.73146565    -0.21500
C1938       C  0.78441967  0.13797035  0.71851524    -0.21500
C1939       C  0.78972224  0.42859820  0.66328534    -0.21500
C1940       C  0.78614062  0.45993741  0.64948296    -0.21500
C1941       C  0.77471008  0.46931895  0.73504902    -0.22500
C1942       C  0.77008317  0.43155771  0.72350881    -0.22500
C1943       C  0.77891170  0.13825361  0.66119052    -0.22500
C1944       C  0.79973988  0.11105364  0.64801851    -0.22500
C1945       C  0.82741537  0.02302141  0.73482845    -0.17900
C1946       C  0.74583385  0.11810305  0.69034276    -0.17900
C1947       C  0.82354540  0.02412306  0.64480231    -0.17900
C1948       C  0.74893978  0.42847695  0.69186093    -0.17900
H1949       H  0.81674898  0.12301978  0.74399540     0.15000
H1950       H  0.77683200  0.17669458  0.71897956     0.15000
H1951       H  0.80701975  0.39272563  0.66327359     0.15000
H1952       H  0.80145875  0.45361270  0.63674805     0.15000
H1953       H  0.78059326  0.46601756  0.74881955     0.13300
H1954       H  0.77280816  0.39342321  0.72658733     0.13300
H1955       H  0.77188589  0.17702039  0.66100904     0.13300
H1956       H  0.81089631  0.12415558  0.63550716     0.13300
H1957       H  0.78243654  0.03036201  0.70211525     0.26600
H1958       H  0.71886845  0.51362842  0.67874271     0.26600
N1959       N  0.67059876  0.21832263  0.70968317    -0.36200
N1960       N  0.69620515  0.31647930  0.70953349    -0.56700
N1961       N  0.70918942  0.31363908  0.67127246    -0.36200
N1962       N  0.68119347  0.21775642  0.67172681    -0.56700
C1963       C  0.67008199  0.22583004  0.72694203     0.27400
C1964       C  0.68227190  0.17108051  0.70690853     0.27400
C1965       C  0.70874285  0.36144870  0.67476333     0.27400
C1966       C  0.69564628  0.30862631  0.65453980     0.27400
C1967       C  0.67505399  0.31473682  0.72528849     0.36000
C1968       C  0.69846471  0.36375798  0.70556800     0.36000
C1969       C  0.68023298  0.17053967  0.67559347     0.36000
C1970       C  0.68037915  0.22145361  0.65446065     0.36000
C1971       C  0.67470792  0.18140229  0.73526585    -0.21500
C1972       C  0.68133147  0.14667873  0.72253807    -0.21500
C1973       C  0.69248108  0.38706302  0.66031581    -0.21500
C1974       C  0.68614424  0.35374855  0.64734427    -0.21500
C1975       C  0.66385474  0.36091537  0.73118386    -0.22500
C1976       C  0.67586550  0.39189585  0.71817742    -0.22500
C1977       C  0.67348602  0.14394044  0.66060576    -0.22500
C1978       C  0.67365830  0.17645934  0.64708408    -0.22500
C1979       C  0.66978650  0.27210019  0.73502103    -0.17900
C1980       C  0.70109990  0.15260799  0.69101176    -0.17900
C1981       C  0.69111815  0.26425957  0.64570243    -0.17900
C1982       C  0.72195764  0.38156146  0.69088904    -0.17900
H1983       H  0.67673662  0.17462791  0.74900149     0.15000
H1984       H  0.68875729  0.10840779  0.72466019     0.15000
H1985       H  0.68485010  0.42562776  0.65925449     0.15000
H1986       H  0.67373681  0.36166963  0.63437722     0.15000
H1987       H  0.64785666  0.37049448  0.74351326     0.13300
H1988       H  0.66983555  0.43078484  0.71793787     0.13300
H1989       H  0.67464110  0.10486711  0.65939941     0.13300
H1990       H  0.67319438  0.16749196  0.63346943     0.13300
H1991       H  0.66546065  0.24442567  0.70021364     0.26600
H1992       H  0.72343694  0.28687169  0.67947524     0.26600
N1993       N  0.58133007  0.96815534  0.77733825    -0.36200
N1994       N  0.58095559  0.96470276  0.81660964    -0.56700
N1995       N  0.02562717  0.89429008  0.81465090    -0.36200
N1996       N  0.02088627  0.90690373  0.77580988    -0.56700
C1997       C  0.62803126  0.96483224  0.78244922     0.27400
C1998       C  0.57949459  0.94512830  0.76191408     0.27400
C1999       C  0.02931324  0.89582053  0.83207933     0.27400
C2000       C  0.97955531  0.88369568  0.81089558     0.27400
C2001       C  0.62850914  0.96827213  0.81298084     0.36000
C2002       C  0.57822657  0.94476119  0.83248397     0.36000
C2003       C  0.02111231  0.91733807  0.75881472     0.36000
C2004       C  0.97582380  0.89339180  0.77973552     0.36000
C2005       C  0.65552553  0.93706853  0.77082719    -0.21500
C2006       C  0.62475491  0.92589498  0.75752115    -0.21500
C2007       C  0.98794755  0.87698245  0.83934180    -0.21500
C2008       C  0.95637546  0.86936613  0.82585023    -0.21500
C2009       C  0.65634264  0.94796809  0.82624418    -0.22500
C2010       C  0.62434713  0.93474962  0.83892996    -0.22500
C2011       C  0.97760618  0.90544000  0.75134496    -0.22500
C2012       C  0.94872466  0.89047043  0.76468893    -0.22500
C2013       C  0.64598710  0.98714409  0.79728453    -0.17900
C2014       C  0.05821611  0.94272837  0.75073108    -0.17900
C2015       C  0.95567505  0.90305993  0.79619793    -0.17900
C2016       C  0.06473553  0.92183873  0.84114950    -0.17900
H2017       H  0.69384309  0.92707083  0.77178279     0.15000
H2018       H  0.63355657  0.90483550  0.74610074     0.15000
H2019       H  0.97866370  0.87507216  0.85290141     0.15000
H2020       H  0.91836524  0.86164104  0.82716824     0.15000
H2021       H  0.69546643  0.94256098  0.82663557     0.13300
H2022       H  0.63369738  0.91821475  0.85120238     0.13300
H2023       H  0.96564686  0.91317436  0.73830829     0.13300
H2024       H  0.91014469  0.88593574  0.76383612     0.13300
H2025       H  0.55366314  0.98903075  0.78334363     0.26600
H2026       H  0.05066425  0.90566170  0.80562703     0.26600
N2027       N  0.49146461  0.12594779  0.77859899    -0.36200
N2028       N  0.88817046  0.24183464  0.77755452    -0.56700
N2029       N  0.88115461  0.21635324  0.81661761    -0.36200
N2030       N  0.48843469  0.12655594  0.81742309    -0.56700
C2031       C  0.48895504  0.13093577  0.76123700     0.27400
C2032       C  0.53882465  0.12388542  0.78292617     0.27400
C2033       C  0.83514112  0.22846096  0.81190304     0.27400
C2034       C  0.87860622  0.19090970  0.83156514     0.27400
C2035       C  0.89084511  0.22712182  0.76089765     0.36000
C2036       C  0.84065812  0.24470053  0.78158014     0.36000
C2037       C  0.53642552  0.12379205  0.81416801     0.36000
C2038       C  0.48307787  0.13023454  0.83466589     0.36000
C2039       C  0.53506832  0.12312273  0.75422928    -0.21500
C2040       C  0.56677324  0.11888948  0.76802664    -0.21500
C2041       C  0.80295939  0.20803665  0.82340675    -0.21500
C2042       C  0.83051878  0.18590900  0.83620499    -0.21500
C2043       C  0.84502172  0.22121921  0.75421906    -0.22500
C2044       C  0.81325763  0.22953019  0.76771241    -0.22500
C2045       C  0.56173457  0.11936188  0.82958811    -0.22500
C2046       C  0.52775690  0.12317746  0.84267543    -0.22500
C2047       C  0.93431504  0.21391940  0.75229407    -0.17900
C2048       C  0.55521046  0.14279158  0.79877454    -0.17900
C2049       C  0.91891423  0.17398096  0.84142350    -0.17900
C2050       C  0.82240841  0.25933257  0.79786230    -0.17900
H2051       H  0.54582860  0.12703267  0.74090593     0.15000
H2052       H  0.60604108  0.11934090  0.76718876     0.15000
H2053       H  0.76366771  0.20955990  0.82277726     0.15000
H2054       H  0.81688824  0.16740965  0.84742204     0.15000
H2055       H  0.83595770  0.20852401  0.74145502     0.13300
H2056       H  0.77457318  0.22413546  0.76746661     0.13300
H2057       H  0.60052308  0.12168883  0.83129574     0.13300
H2058       H  0.53598569  0.12732126  0.85624011     0.13300
H2059       H  0.46290075  0.12929154  0.78735973     0.26600
H2060       H  0.91214053  0.23041607  0.81106423     0.26600
N2061       N  0.76390059  0.02926655  0.77843292    -0.36200
N2062       N  0.75960696  0.01745390  0.81600456    -0.56700
N2063       N  0.84940731  0.96682931  0.81768407    -0.36200
N2064       N  0.85710823  0.98286780  0.77901832    -0.56700
C2065       C  0.71535223  0.02658493  0.78049470     0.27400
C2066       C  0.77356635  0.02872428  0.76130436     0.27400
C2067       C  0.84667876  0.98451463  0.83400429     0.27400
C2068       C  0.89672052  0.95702888  0.81426264     0.27400
C2069       C  0.71379072  0.03110914  0.81191745     0.36000
C2070       C  0.76330895  0.02008641  0.83325542     0.36000
C2071       C  0.86079764  0.00990701  0.76457573     0.36000
C2072       C  0.90284266  0.97282039  0.78428040     0.36000
C2073       C  0.69341595  0.03169989  0.76441917    -0.21500
C2074       C  0.73015754  0.03170156  0.75226214    -0.21500
C2075       C  0.89280931  0.98630640  0.84099000    -0.21500
C2076       C  0.92464205  0.97107140  0.82816334    -0.21500
C2077       C  0.68902675  0.04674194  0.82663330    -0.22500
C2078       C  0.72029485  0.03921167  0.84028014    -0.22500
C2079       C  0.90897942  0.01760416  0.76076073    -0.22500
C2080       C  0.93566451  0.99564154  0.77373001    -0.22500
C2081       C  0.69215127  0.01590311  0.79646332    -0.17900
C2082       C  0.82086419  0.02303696  0.75406280    -0.17900
C2083       C  0.91457345  0.94129452  0.79805481    -0.17900
C2084       C  0.80391170  0.00153352  0.84243246    -0.17900
H2085       H  0.65492871  0.03377614  0.76159568     0.15000
H2086       H  0.72509062  0.03178934  0.73841804     0.15000
H2087       H  0.90254718  0.00052222  0.85350289     0.15000
H2088       H  0.96378949  0.97248151  0.82870944     0.15000
H2089       H  0.65079948  0.05646698  0.82764335     0.13300
H2090       H  0.71095433  0.04394558  0.85377114     0.13300
H2091       H  0.92326261  0.03704813  0.74989556     0.13300
H2092       H  0.97470210  0.99581724  0.77511401     0.13300
H2093       H  0.78954986  0.03054479  0.78819408     0.26600
H2094       H  0.82094010  0.95807323  0.80953559     0.26600
N2095       N  0.63726778  0.23329757  0.77976692    -0.36200
N2096       N  0.71130875  0.29834400  0.78056399    -0.56700
N2097       N  0.71253627  0.30070148  0.81925850    -0.36200
N2098       N  0.63768764  0.23141096  0.81867935    -0.56700
C2099       C  0.63233443  0.25290578  0.76378750     0.27400
C2100       C  0.59441472  0.21427097  0.78383498     0.27400
C2101       C  0.75959358  0.30770507  0.81561768     0.27400
C2102       C  0.70960569  0.29199045  0.83636604     0.27400
C2103       C  0.70710864  0.29870218  0.76326351     0.36000
C2104       C  0.75564264  0.31377373  0.78447198     0.36000
C2105       C  0.59448489  0.21318373  0.81459216     0.36000
C2106       C  0.63213709  0.25083821  0.83464943     0.36000
C2107       C  0.58584135  0.24611487  0.75773748    -0.21500
C2108       C  0.56104871  0.22446637  0.77085689    -0.21500
C2109       C  0.78549113  0.31135435  0.83090563    -0.21500
C2110       C  0.75369920  0.30129220  0.84412411    -0.21500
C2111       C  0.74767485  0.31931344  0.75604965    -0.22500
C2112       C  0.77819264  0.32954526  0.76958730    -0.22500
C2113       C  0.56059806  0.22433815  0.82743181    -0.22500
C2114       C  0.58519742  0.24606716  0.84057985    -0.22500
C2115       C  0.66941617  0.27539417  0.75442515    -0.17900
C2116       C  0.58556511  0.18806628  0.79908433    -0.17900
C2117       C  0.67022167  0.26949882  0.84436888    -0.17900
C2118       C  0.78014569  0.29653376  0.79931421    -0.17900
H2119       H  0.57104320  0.25583515  0.74529308     0.15000
H2120       H  0.52282831  0.21698077  0.77080281     0.15000
H2121       H  0.82439342  0.31468615  0.83220121     0.15000
H2122       H  0.76355485  0.29594892  0.85752475     0.15000
H2123       H  0.75718789  0.32168677  0.74255034     0.13300
H2124       H  0.81544278  0.34040811  0.76837658     0.13300
H2125       H  0.52213449  0.21782910  0.82727424     0.13300
H2126       H  0.57012758  0.25845341  0.85281816     0.13300
H2127       H  0.66923727  0.22751807  0.78679072     0.26600
H2128       H  0.68501444  0.29684785  0.81026069     0.26600
N2129       N  0.95655965  0.10204544  0.27613942    -0.36200
N2130       N  0.93355183  0.09840327  0.31481123    -0.56700
N2131       N  0.00024068  0.53068815  0.31843754    -0.36200
N2132       N  0.02922947  0.54065381  0.28146804    -0.56700
C2133       C  0.94649986  0.14838269  0.28087092     0.27400
C2134       C  0.98220605  0.10424712  0.26114667     0.27400
C2135       C  0.97124477  0.52862510  0.33245407     0.27400
C2136       C  0.00337200  0.48534109  0.31213447     0.27400
C2137       C  0.90442104  0.13542735  0.30939430     0.36000
C2138       C  0.93156032  0.09856854  0.33231046     0.36000
C2139       C  0.03648512  0.54499383  0.26427145     0.36000
C2140       C  0.05484260  0.50048440  0.28652933     0.36000
C2141       C  0.96852082  0.17884479  0.26908246    -0.21500
C2142       C  0.98805907  0.15113485  0.25612570    -0.21500
C2143       C  0.95446448  0.48300845  0.33498111    -0.21500
C2144       C  0.97325573  0.45578417  0.32170766    -0.21500
C2145       C  0.87865223  0.15468122  0.32356882    -0.22500
C2146       C  0.89710090  0.13224789  0.33815506    -0.22500
C2147       C  0.07118451  0.51092103  0.25877171    -0.22500
C2148       C  0.08420762  0.48363444  0.27299323    -0.22500
C2149       C  0.91840547  0.16474681  0.29538834    -0.17900
C2150       C  0.00753850  0.57562620  0.25355038    -0.17900
C2151       C  0.03541611  0.46901771  0.29891712    -0.17900
C2152       C  0.95203544  0.56844540  0.34117481    -0.17900
H2153       H  0.97369387  0.21703737  0.27005795     0.15000
H2154       H  0.00936312  0.16382682  0.24541825     0.15000
H2155       H  0.92846141  0.47181703  0.34454168     0.15000
H2156       H  0.96489634  0.41844590  0.31937907     0.15000
H2157       H  0.85504246  0.18697430  0.32365022     0.13300
H2158       H  0.88852412  0.14190277  0.35139688     0.13300
H2159       H  0.08139548  0.50262676  0.24568007     0.13300
H2160       H  0.10544022  0.44981615  0.27255732     0.13300
H2161       H  0.94643061  0.07078022  0.28257145     0.26600
H2162       H  0.01808908  0.56101621  0.31402131     0.26600
N2163       N  0.99666948  0.35392806  0.27770538    -0.36200
N2164       N  0.92226466  0.28889196  0.28182821    -0.56700
N2165       N  0.95654116  0.27520565  0.31861478    -0.36200
N2166       N  0.02906652  0.34615664  0.31427845    -0.56700
C2167       C  0.97202984  0.35707553  0.26251784     0.27400
C2168       C  0.00830788  0.39987545  0.28168667     0.27400
C2169       C  0.95382703  0.23105870  0.31141954     0.27400
C2170       C  0.98898729  0.26980484  0.33160008     0.27400
C2171       C  0.91686252  0.29173235  0.26450546     0.36000
C2172       C  0.89770828  0.25042185  0.28715563     0.36000
C2173       C  0.05246112  0.38604640  0.30977988     0.36000
C2174       C  0.03208224  0.34252051  0.33169098     0.36000
C2175       C  0.96973727  0.40363503  0.25673690    -0.21500
C2176       C  0.98823884  0.43096525  0.26931524    -0.21500
C2177       C  0.98764900  0.19912656  0.31919629    -0.21500
C2178       C  0.00863750  0.22343277  0.33236801    -0.21500
C2179       C  0.88310607  0.25855739  0.25924037    -0.22500
C2180       C  0.86895353  0.23443424  0.27377155    -0.22500
C2181       C  0.07508416  0.40466794  0.32433419    -0.22500
C2182       C  0.06030562  0.37829077  0.33832720    -0.22500
C2183       C  0.94707330  0.32055110  0.25414632    -0.17900
C2184       C  0.03685985  0.41562861  0.29578583    -0.17900
C2185       C  0.00755505  0.30736474  0.34099703    -0.17900
C2186       C  0.91933339  0.21760022  0.29900244    -0.17900
H2187       H  0.95624405  0.41660331  0.24468288     0.15000
H2188       H  0.98541556  0.46964720  0.26903727     0.15000
H2189       H  0.99739472  0.16225416  0.31557289     0.15000
H2190       H  0.03761951  0.20985733  0.34066597     0.15000
H2191       H  0.87290353  0.24768486  0.24647030     0.13300
H2192       H  0.84825822  0.20185113  0.27362140     0.13300
H2193       H  0.09429292  0.43809344  0.32515062     0.13300
H2194       H  0.06801176  0.38603896  0.35171180     0.13300
H2195       H  0.00649070  0.32222669  0.28434168     0.26600
H2196       H  0.93608824  0.30663449  0.31550862     0.26600
N2197       N  0.75339161  0.01411245  0.28032207    -0.36200
N2198       N  0.79944327  0.39778392  0.27777689    -0.56700
N2199       N  0.80416105  0.39735313  0.31651491    -0.36200
N2200       N  0.77663861  0.01460529  0.31812883    -0.56700
C2201       C  0.76538306  0.00885611  0.26353027     0.27400
C2202       C  0.76532697  0.05860370  0.28514158     0.27400
C2203       C  0.80251211  0.35078619  0.31162172     0.27400
C2204       C  0.81924040  0.39877228  0.33314178     0.27400
C2205       C  0.79011149  0.40635164  0.26095610     0.36000
C2206       C  0.78897171  0.35159236  0.28079198     0.36000
C2207       C  0.76642366  0.06207531  0.31571725     0.36000
C2208       C  0.78107284  0.00798333  0.33526388     0.36000
C2209       C  0.78503343  0.05122757  0.25749157    -0.21500
C2210       C  0.78498028  0.08302056  0.27134038    -0.21500
C2211       C  0.81785670  0.32124225  0.32517966    -0.21500
C2212       C  0.82834096  0.35172571  0.33885829    -0.21500
C2213       C  0.77773769  0.36416626  0.25276953    -0.22500
C2214       C  0.77909623  0.32882821  0.26526175    -0.22500
C2215       C  0.77026363  0.08693913  0.33116081    -0.22500
C2216       C  0.77978043  0.05249485  0.34365135    -0.22500
C2217       C  0.79156803  0.45255966  0.25342842    -0.17900
C2218       C  0.74650614  0.07982980  0.30015702    -0.17900
C2219       C  0.81781308  0.44117377  0.34357151    -0.17900
C2220       C  0.77468425  0.33640347  0.29736642    -0.17900
H2221       H  0.79659668  0.05888563  0.24443983     0.15000
H2222       H  0.79481853  0.12057408  0.27104097     0.15000
H2223       H  0.81710952  0.28210049  0.32564605     0.15000
H2224       H  0.83811627  0.34059099  0.35181598     0.15000
H2225       H  0.76719853  0.35966316  0.23941717     0.13300
H2226       H  0.77021721  0.29146112  0.26331506     0.13300
H2227       H  0.76551191  0.12549113  0.33330128     0.13300
H2228       H  0.78284767  0.05930873  0.35736991     0.13300
H2229       H  0.73043168  0.99275640  0.28751688     0.26600
H2230       H  0.78594500  0.42494852  0.30978109     0.26600
N2231       N  0.69686179  0.25860121  0.28061054    -0.36200
N2232       N  0.68548437  0.26789620  0.32036676    -0.56700
N2233       N  0.68773789  0.16954862  0.31944671    -0.36200
N2234       N  0.66802979  0.16583889  0.28025516    -0.56700
C2235       C  0.69555445  0.30456719  0.28618468     0.27400
C2236       C  0.67552875  0.25801810  0.26488273     0.27400
C2237       C  0.67523328  0.17547270  0.33624840     0.27400
C2238       C  0.67691390  0.12460282  0.31474528     0.27400
C2239       C  0.70453040  0.31051395  0.31666730     0.36000
C2240       C  0.68782229  0.26281272  0.33760960     0.36000
C2241       C  0.67065221  0.17045625  0.26290634     0.36000
C2242       C  0.67484506  0.11858856  0.28386129     0.36000
C2243       C  0.67387983  0.33452190  0.27390507    -0.21500
C2244       C  0.66146302  0.30501749  0.26023211    -0.21500
C2245       C  0.65745178  0.13241726  0.34245401    -0.21500
C2246       C  0.65830674  0.10017323  0.32871293    -0.21500
C2247       C  0.71142677  0.33641397  0.33172165    -0.22500
C2248       C  0.70108985  0.30588769  0.34516419    -0.22500
C2249       C  0.67432335  0.12517540  0.25531801    -0.22500
C2250       C  0.67454147  0.09224595  0.26862468    -0.22500
C2251       C  0.72326292  0.31983500  0.30016920    -0.17900
C2252       C  0.67282821  0.21584305  0.25458878    -0.17900
C2253       C  0.69563926  0.10308228  0.29968819    -0.17900
C2254       C  0.68418502  0.21770252  0.34593349    -0.17900
H2255       H  0.67148075  0.37364957  0.27423635     0.15000
H2256       H  0.64530762  0.31706951  0.24819440     0.15000
H2257       H  0.64656629  0.12423618  0.35550792     0.15000
H2258       H  0.64957074  0.06231441  0.32919831     0.15000
H2259       H  0.72435033  0.37261048  0.33289017     0.13300
H2260       H  0.70583659  0.31352313  0.35875871     0.13300
H2261       H  0.68091597  0.11631025  0.24196500     0.13300
H2262       H  0.67791289  0.05344428  0.26718801     0.13300
H2263       H  0.71824278  0.23097301  0.28625386     0.26600
H2264       H  0.71032717  0.19089759  0.31211171     0.26600
O2265       O  0.52862446  0.50990021  0.42357199    -0.72500
O2266       O  0.53380022  0.50085298  0.47589114    -0.73500
O2267       O  0.53315250  0.43139315  0.44873464    -0.62100
O2268       O  0.52692625  0.07932897  0.44829391    -0.70500
O2269       O  0.95716650  0.10215835  0.45119082    -0.70100
O2270       O  0.94783673  0.45380063  0.44915784    -0.61300
O2271       O  0.95128276  0.52548964  0.47546279    -0.73800
O2272       O  0.94110359  0.53337800  0.42426163    -0.72600
Cu2273     Cu  0.53530777  0.50512733  0.44968504     1.04600
Cu2274     Cu  0.94498278  0.52932899  0.44987116     1.04300
C2275       C  0.97839430  0.53608509  0.41458494     0.93700
C2276       C  0.99282247  0.51999907  0.48251103     0.92800
C2277       C  0.98847998  0.42911328  0.44814358     0.85000
C2278       C  0.99737363  0.12435017  0.45028210     0.91200
O2279       O  0.95781335  0.27368549  0.47578285    -0.72500
O2280       O  0.95658965  0.27961303  0.42324857    -0.73500
O2281       O  0.95699960  0.20308052  0.44911549    -0.62100
O2282       O  0.95175848  0.35103097  0.44996713    -0.70500
O2283       O  0.53468555  0.32971586  0.45010860    -0.70100
O2284       O  0.53139646  0.17998464  0.44850586    -0.61300
O2285       O  0.53856802  0.25856352  0.42346311    -0.73800
O2286       O  0.53401216  0.25121618  0.47504955    -0.72600
Cu2287     Cu  0.95295231  0.27688508  0.44956188     1.04600
Cu2288     Cu  0.53736401  0.25462602  0.44927505     1.04300
C2289       C  0.99867377  0.27122948  0.48379412     0.93700
C2290       C  0.99771545  0.28085717  0.41541771     0.92800
C2291       C  0.99742157  0.17870708  0.44965302     0.85000
C2292       C  0.99084136  0.37459268  0.44930855     0.91200
O2293       O  0.78819854  0.48090190  0.47747881    -0.72500
O2294       O  0.81005119  0.47304601  0.42685285    -0.73500
O2295       O  0.78867579  0.05211115  0.45184132    -0.62100
O2296       O  0.79580323  0.40253501  0.45273814    -0.70500
O2297       O  0.71584521  0.40711527  0.44942668    -0.70100
O2298       O  0.70821102  0.05588124  0.45076413    -0.61300
O2299       O  0.73084972  0.47441785  0.42200322    -0.73800
O2300       O  0.70802889  0.48564539  0.47441473    -0.72600
Cu2301     Cu  0.80057160  0.47716049  0.45228286     1.04600
Cu2302     Cu  0.71542420  0.48070676  0.44809382     1.04300
C2303       C  0.74583499  0.48555113  0.48408376     0.93700
C2304       C  0.77482157  0.46979988  0.41634036     0.92800
C2305       C  0.74859028  0.07746511  0.45157618     0.85000
C2306       C  0.75516730  0.38142129  0.45114253     0.91200
O2307       O  0.77963173  0.22440261  0.42411575    -0.72500
O2308       O  0.79855292  0.23057878  0.47672330    -0.73500
O2309       O  0.78935850  0.15329355  0.45102911    -0.62100
O2310       O  0.79253114  0.30111749  0.44964778    -0.70500
O2311       O  0.71244482  0.30645259  0.45268543    -0.70100
O2312       O  0.70923774  0.15738578  0.45397409    -0.61300
O2313       O  0.71806698  0.23461691  0.47866273    -0.73800
O2314       O  0.69999970  0.22946516  0.42846710    -0.72600
Cu2315     Cu  0.79299510  0.22715997  0.45023972     1.04600
Cu2316     Cu  0.70744817  0.23216843  0.45360531     1.04300
C2317       C  0.73599772  0.22475481  0.41820412     0.93700
C2318       C  0.75961450  0.23470507  0.48584230     0.92800
C2319       C  0.74900765  0.13187723  0.45224499     0.85000
C2320       C  0.75328537  0.32717843  0.45117800     0.91200
O2321       O  0.60002270  0.50012537  0.03581269    -0.72500
O2322       O  0.95397547  0.49920105  0.03664501    -0.73500
O2323       O  0.02779806  0.49962439  0.01016350    -0.62100
O2324       O  0.02823143  0.50758786  0.06254065    -0.70500
O2325       O  0.01156862  0.04806902  0.05920605    -0.70100
O2326       O  0.01104130  0.03579046  0.00812630    -0.61300
O2327       O  0.93592958  0.03898510  0.03434564    -0.73800
O2328       O  0.58603586  0.03724636  0.03524054    -0.72600
Cu2329     Cu  0.02784864  0.49908277  0.03638255     1.04600
Cu2330     Cu  0.01100658  0.04298808  0.03374603     1.04300
C2331       C  0.61049158  0.99678713  0.03669112     0.93700
C2332       C  0.91470464  0.99845412  0.03595719     0.92800
C2333       C  0.01349301  0.99414227  0.00108042     0.85000
C2334       C  0.01293790  0.01170199  0.06926703     0.91200
O2335       O  0.86899506  0.24853960  0.03840848    -0.72500
O2336       O  0.51519372  0.25041434  0.03750015    -0.73500
O2337       O  0.94194422  0.24722431  0.01182382    -0.62100
O2338       O  0.94618050  0.24718464  0.06406473    -0.70500
O2339       O  0.94752483  0.16683873  0.06454723    -0.70100
O2340       O  0.94278230  0.16687794  0.01193869    -0.61300
O2341       O  0.51938620  0.17017576  0.03803873    -0.73800
O2342       O  0.87045682  0.16830851  0.03882453    -0.72600
Cu2343     Cu  0.94370168  0.24941857  0.03789199     1.04600
Cu2344     Cu  0.94485659  0.16362406  0.03817799     1.04300
C2345       C  0.84619001  0.20884758  0.03851765     0.93700
C2346       C  0.54080234  0.21057464  0.03781862     0.92800
C2347       C  0.94183582  0.20703435  0.00364127     0.85000
C2348       C  0.94839202  0.20748376  0.07254185     0.91200
O2349       O  0.68725812  0.03485543  0.03655554    -0.72500
O2350       O  0.83453621  0.03587957  0.03747089    -0.73500
O2351       O  0.76318150  0.03224050  0.01082372    -0.62100
O2352       O  0.75810351  0.03192385  0.06369319    -0.70500
O2353       O  0.77515000  0.48550053  0.05989804    -0.70100
O2354       O  0.77856890  0.49783573  0.00920926    -0.61300
O2355       O  0.85217638  0.49526630  0.03512616    -0.73800
O2356       O  0.70156474  0.49604511  0.03419099    -0.72600
Cu2357     Cu  0.76071036  0.03660165  0.03716666     1.04600
Cu2358     Cu  0.77696070  0.49105626  0.03455282     1.04300
C2359       C  0.66490694  0.99520965  0.03660328     0.93700
C2360       C  0.86040309  0.99653427  0.03676098     0.92800
C2361       C  0.76541824  0.99131567  0.00286399     0.85000
C2362       C  0.75933982  0.99048138  0.07124738     0.91200
O2363       O  0.76692032  0.24970600  0.03694573    -0.72500
O2364       O  0.61750877  0.25073882  0.03704135    -0.73500
O2365       O  0.69234773  0.25728112  0.06247711    -0.62100
O2366       O  0.69195866  0.24352176  0.01141164    -0.70500
O2367       O  0.69465625  0.16320395  0.01279835    -0.70100
O2368       O  0.69431780  0.17732377  0.06496651    -0.61300
O2369       O  0.62026478  0.17066505  0.03891748    -0.73800
O2370       O  0.76921852  0.16967870  0.03901463    -0.72600
Cu2371     Cu  0.69214398  0.25294338  0.03685168     1.04600
Cu2372     Cu  0.69476454  0.16737183  0.03902536     1.04300
C2373       C  0.79160521  0.20951194  0.03816481     0.93700
C2374       C  0.59535696  0.21077423  0.03793808     0.92800
C2375       C  0.69343858  0.21951063  0.07191553     0.85000
C2376       C  0.69262779  0.20221801  0.00393963     0.91200
N2377       N  0.97032569  0.02539791  0.20917212    -0.36200
N2378       N  0.53709371  0.08431659  0.20975620    -0.56700
N2379       N  0.54122234  0.08820869  0.17024134    -0.36200
N2380       N  0.97046664  0.02653910  0.16907305    -0.56700
C2381       C  0.97296552  0.55775262  0.22400652     0.27400
C2382       C  0.92401309  0.01874551  0.20450416     0.27400
C2383       C  0.58740160  0.09703983  0.17446786     0.27400
C2384       C  0.54051578  0.07898121  0.15306741     0.27400
C2385       C  0.55767453  0.57166488  0.22603554     0.36000
C2386       C  0.58096378  0.10063524  0.20563762     0.36000
C2387       C  0.92395263  0.01953864  0.17353244     0.36000
C2388       C  0.96905746  0.04457957  0.15281587     0.36000
C2389       C  0.92416751  0.56112209  0.22851457    -0.21500
C2390       C  0.89858045  0.54409767  0.21453664    -0.21500
C2391       C  0.61455307  0.10213911  0.15950251    -0.21500
C2392       C  0.58494458  0.09019458  0.14589362    -0.21500
C2393       C  0.59680387  0.59330187  0.23367951    -0.22500
C2394       C  0.62951583  0.60078101  0.22041917    -0.22500
C2395       C  0.89294753  0.03605720  0.16054032    -0.22500
C2396       C  0.92174735  0.04921893  0.14699323    -0.22500
C2397       C  0.01212540  0.57400063  0.23416504    -0.17900
C2398       C  0.90983034  0.99649975  0.18890303    -0.17900
C2399       C  0.01048356  0.05481785  0.14293688    -0.17900
C2400       C  0.60685437  0.08452478  0.19077821    -0.17900
H2401       H  0.90848342  0.57590380  0.24029798     0.15000
H2402       H  0.85946447  0.54219036  0.21358758     0.15000
H2403       H  0.65336756  0.10688751  0.15872422     0.15000
H2404       H  0.59693223  0.08469633  0.13269723     0.15000
H2405       H  0.60175066  0.60130544  0.24723495     0.13300
H2406       H  0.66535916  0.61463273  0.22118230     0.13300
H2407       H  0.85361280  0.03762260  0.16069826     0.13300
H2408       H  0.90941610  0.06250467  0.13454961     0.13300
H2409       H  0.00064405  0.01212281  0.20227245     0.26600
H2410       H  0.51329532  0.08361533  0.17907077     0.26600
N2411       N  0.91735867  0.26617810  0.21228427    -0.36200
N2412       N  0.46751370  0.33819656  0.20785019    -0.56700
N2413       N  0.51281972  0.27432339  0.16452889    -0.36200
N2414       N  0.93069003  0.22555959  0.17597599    -0.56700
C2415       C  0.91179729  0.30084188  0.22460213     0.27400
C2416       C  0.87269387  0.25919680  0.20582744     0.27400
C2417       C  0.50491182  0.31474389  0.17398294     0.27400
C2418       C  0.47846542  0.27354453  0.15225616     0.27400
C2419       C  0.46739007  0.34206664  0.22521109     0.36000
C2420       C  0.51146578  0.35110230  0.20235076     0.36000
C2421       C  0.89576494  0.19911937  0.18318840     0.36000
C2422       C  0.93961395  0.20693799  0.15999847     0.36000
C2423       C  0.86452169  0.31817412  0.22532029    -0.21500
C2424       C  0.83935144  0.29208321  0.21342157    -0.21500
C2425       C  0.46519820  0.34109318  0.16755004    -0.21500
C2426       C  0.44862725  0.31506911  0.15357530    -0.21500
C2427       C  0.50964668  0.36419407  0.23047496    -0.22500
C2428       C  0.53730341  0.37007327  0.21588602    -0.22500
C2429       C  0.88679641  0.15986223  0.17250729    -0.22500
C2430       C  0.91409032  0.16547167  0.15767464    -0.22500
C2431       C  0.94969492  0.31836316  0.23453573    -0.17900
C2432       C  0.86086597  0.22077398  0.19463768    -0.17900
C2433       C  0.96390570  0.23288429  0.14704750    -0.17900
C2434       C  0.53308010  0.32604174  0.18847893    -0.17900
H2435       H  0.85065793  0.34666678  0.23356705     0.15000
H2436       H  0.80076798  0.29639048  0.21090779     0.15000
H2437       H  0.44898926  0.37422129  0.17283504     0.15000
H2438       H  0.41492023  0.32247356  0.14672157     0.15000
H2439       H  0.52350423  0.37043641  0.24322642     0.13300
H2440       H  0.57511068  0.37961702  0.21572154     0.13300
H2441       H  0.85806353  0.13450219  0.17403690     0.18100
H2442       H  0.91120800  0.14507068  0.14584866     0.13300
H2443       H  0.94917106  0.24577608  0.20951543     0.26600
H2444       H  0.53657774  0.24516750  0.16760329     0.26600
N2445       N  0.82844120  0.44193950  0.20657700    -0.36200
N2446       N  0.79895864  0.95480869  0.17064974    -0.56700
N2447       N  0.71072858  0.01061555  0.17180078    -0.36200
N2448       N  0.71358494  0.01526126  0.21105797    -0.56700
C2449       C  0.84769023  0.94678995  0.20438469     0.27400
C2450       C  0.82758619  0.44462189  0.22399531     0.27400
C2451       C  0.70796528  0.98676056  0.15643510     0.27400
C2452       C  0.66454652  0.01971157  0.17730379     0.27400
C2453       C  0.84668847  0.94640981  0.17340238     0.36000
C2454       C  0.79230664  0.95568519  0.15350104     0.36000
C2455       C  0.74379057  0.47736506  0.22695734     0.36000
C2456       C  0.66746407  0.03097893  0.20802759     0.36000
C2457       C  0.90466455  0.43668398  0.21629315    -0.21500
C2458       C  0.87401047  0.43959085  0.23035359    -0.21500
C2459       C  0.65988697  0.97943283  0.15243481    -0.21500
C2460       C  0.63258975  0.99847669  0.16595761    -0.21500
C2461       C  0.87022047  0.93629361  0.15792015    -0.22500
C2462       C  0.83582587  0.94305754  0.14517278    -0.22500
C2463       C  0.69912851  0.48088737  0.23508263    -0.22500
C2464       C  0.66729174  0.50033632  0.22305622    -0.22500
C2465       C  0.86880342  0.96105907  0.18880797    -0.17900
C2466       C  0.78696595  0.45753589  0.23424852    -0.17900
C2467       C  0.65057944  0.04850857  0.19192087    -0.17900
C2468       C  0.74795820  0.97158657  0.14589406    -0.17900
H2469       H  0.94388875  0.43832291  0.21657498     0.15000
H2470       H  0.88390793  0.44413606  0.24370738     0.15000
H2471       H  0.64616696  0.96092786  0.14122020     0.15000
H2472       H  0.59345766  0.99763069  0.16717609     0.15000
H2473       H  0.90897104  0.93095186  0.15589589     0.13300
H2474       H  0.84362218  0.94288530  0.13148994     0.13300
H2475       H  0.68992817  0.46775796  0.24779949     0.13300
H2476       H  0.62844312  0.50226877  0.22438703     0.13300
H2477       H  0.77366496  0.96565353  0.19925811     0.26600
H2478       H  0.74182125  0.02448709  0.17737136     0.26600
N2479       N  0.73272230  0.21082124  0.21003359    -0.36200
N2480       N  0.63982439  0.26116024  0.21028616    -0.56700
N2481       N  0.64527237  0.26350340  0.17199292    -0.36200
N2482       N  0.73953162  0.21498925  0.17190017    -0.56700
C2483       C  0.72272456  0.20787236  0.22720399     0.27400
C2484       C  0.78076651  0.20064049  0.20775366     0.27400
C2485       C  0.61299941  0.30006943  0.17577164     0.27400
C2486       C  0.65694746  0.26780443  0.15511747     0.27400
C2487       C  0.63695142  0.23924710  0.22584861     0.36000
C2488       C  0.59405949  0.27410988  0.20556160     0.36000
C2489       C  0.78658414  0.22072535  0.17606252     0.36000
C2490       C  0.73548442  0.22517744  0.15484363     0.36000
C2491       C  0.76460855  0.19260151  0.23583381    -0.21500
C2492       C  0.80108627  0.18785623  0.22360068    -0.21500
C2493       C  0.60586424  0.32901406  0.16126731    -0.21500
C2494       C  0.63202379  0.30745657  0.14805155    -0.21500
C2495       C  0.58911262  0.23891968  0.23128029    -0.22500
C2496       C  0.56187712  0.25956520  0.21818143    -0.22500
C2497       C  0.81135443  0.23679426  0.16161446    -0.22500
C2498       C  0.77991510  0.23677279  0.14806023    -0.22500
C2499       C  0.67717109  0.21999113  0.23525150    -0.17900
C2500       C  0.80786834  0.21109658  0.19253031    -0.17900
C2501       C  0.69203831  0.23855942  0.14640521    -0.17900
C2502       C  0.58223618  0.30115559  0.19043078    -0.17900
H2503       H  0.76903720  0.18734581  0.24959127     0.15000
H2504       H  0.83894410  0.17874202  0.22624586     0.15000
H2505       H  0.58160672  0.36059130  0.15999907     0.15000
H2506       H  0.63298343  0.32050536  0.13492141     0.15000
H2507       H  0.57523833  0.22359644  0.24307935     0.13300
H2508       H  0.52286528  0.26247648  0.21793836     0.13300
H2509       H  0.84762465  0.24992339  0.16079501     0.13300
H2510       H  0.78747758  0.25047891  0.13528800     0.13300
H2511       H  0.70930804  0.22168880  0.20045865     0.26600
H2512       H  0.65324481  0.23335480  0.17959271     0.26600
O2513       O  0.60958370  0.49133302  0.95111802    -0.72500
O2514       O  0.95793407  0.49953483  0.94924145    -0.73500
O2515       O  0.03433498  0.49183806  0.92411978    -0.62100
O2516       O  0.03150408  0.49796263  0.97497463    -0.70500
O2517       O  0.01428284  0.02847705  0.97250747    -0.70100
O2518       O  0.02308032  0.01001269  0.91980306    -0.61300
O2519       O  0.94439445  0.01996398  0.94556973    -0.73800
O2520       O  0.59345830  0.02295639  0.94888656    -0.72600
Cu2521     Cu  0.03286131  0.49376395  0.94948833     1.04600
Cu2522     Cu  0.01786417  0.02391065  0.94607237     1.04300
C2523       C  0.61782964  0.98278425  0.94991196     0.93700
C2524       C  0.92271867  0.98046146  0.94798744     0.92800
C2525       C  0.02831163  0.96633872  0.91403128     0.85000
C2526       C  0.01598658  0.99048123  0.98209977     0.91200
O2527       O  0.93387571  0.23963978  0.92314660    -0.72500
O2528       O  0.93946607  0.24639971  0.97591643    -0.73500
O2529       O  0.51059807  0.24474418  0.94929023    -0.62100
O2530       O  0.86320863  0.24661170  0.95039441    -0.70500
O2531       O  0.86446079  0.16638861  0.95125466    -0.70100
O2532       O  0.51561261  0.16478910  0.95174319    -0.61300
O2533       O  0.94068973  0.16608486  0.97666040    -0.73800
O2534       O  0.93719739  0.15964569  0.92511184    -0.72600
Cu2535     Cu  0.93705627  0.24688531  0.94949826     1.04600
Cu2536     Cu  0.93927926  0.16123278  0.95084618     1.04300
C2537       C  0.93349588  0.19777640  0.91588600     0.93700
C2538       C  0.94060538  0.20670142  0.98452464     0.92800
C2539       C  0.53647383  0.20555840  0.95074121     0.85000
C2540       C  0.84038414  0.20718647  0.95084369     0.91200
O2541       O  0.78604130  0.50708961  0.92143111    -0.72500
O2542       O  0.78303379  0.50066973  0.97421127    -0.73500
O2543       O  0.71107119  0.49746318  0.94767076    -0.62100
O2544       O  0.85766892  0.50231490  0.94813741    -0.70500
O2545       O  0.84382244  0.02246815  0.94931865    -0.70100
O2546       O  0.69407448  0.02356705  0.94977115    -0.61300
O2547       O  0.76814980  0.02803383  0.97535415    -0.73800
O2548       O  0.76962314  0.02358247  0.92434033    -0.72600
Cu2549     Cu  0.78459660  0.49907310  0.94781419     1.04600
Cu2550     Cu  0.76873786  0.02707181  0.94970294     1.04300
C2551       C  0.77405763  0.98409343  0.91588695     0.93700
C2552       C  0.76793916  0.98887154  0.98393288     0.92800
C2553       C  0.67228172  0.98318573  0.94982575     0.85000
C2554       C  0.86822507  0.98176015  0.94918086     0.91200
O2555       O  0.68514128  0.25897112  0.92740379    -0.72500
O2556       O  0.68784508  0.24321390  0.97770409    -0.73500
O2557       O  0.76144610  0.24912113  0.95216843    -0.62100
O2558       O  0.61172641  0.24804412  0.95259813    -0.70500
O2559       O  0.61642327  0.16811053  0.94989461    -0.70100
O2560       O  0.76367339  0.16923955  0.94923999    -0.61300
O2561       O  0.69165894  0.16295555  0.97592603    -0.73800
O2562       O  0.68806571  0.17959179  0.92323563    -0.72600
Cu2563     Cu  0.68643667  0.25241877  0.95259168     1.04600
Cu2564     Cu  0.69011406  0.16705757  0.94944008     1.04300
C2565       C  0.68532538  0.22292205  0.91717383     0.93700
C2566       C  0.69066074  0.20199171  0.98497513     0.92800
C2567       C  0.78600125  0.20873564  0.95076554     0.85000
C2568       C  0.59068463  0.20744599  0.95113988     0.91200
O2569       O  0.96524875  0.08272653  0.53842863    -0.72500
O2570       O  0.96150699  0.43640915  0.53652714    -0.73500
O2571       O  0.97506218  0.50596906  0.56316555    -0.62100
O2572       O  0.95762859  0.51375064  0.51081584    -0.70500
O2573       O  0.53565796  0.48958101  0.51084599    -0.70100
O2574       O  0.54410819  0.48391511  0.56209966    -0.61300
O2575       O  0.53556366  0.41212534  0.53602277    -0.73800
O2576       O  0.53778933  0.06307968  0.53519050    -0.72600
Cu2577     Cu  0.96197035  0.51016981  0.53712448     1.04600
Cu2578     Cu  0.54112214  0.48675404  0.53641723     1.04300
C2579       C  0.00447313  0.10566152  0.53696812     0.93700
C2580       C  0.00069928  0.41019276  0.53549136     0.92800
C2581       C  0.50630248  0.48314375  0.57162355     0.85000
C2582       C  0.99600580  0.51357375  0.50132419     0.91200
O2583       O  0.53321854  0.16447699  0.53621136    -0.72500
O2584       O  0.53174483  0.31146951  0.53814953    -0.73500
O2585       O  0.52464311  0.23397771  0.56367928    -0.62100
O2586       O  0.53289372  0.24202191  0.51066469    -0.70500
O2587       O  0.95918261  0.26152711  0.51046381    -0.70100
O2588       O  0.95204532  0.25747870  0.56128291    -0.61300
O2589       O  0.95806020  0.33444711  0.53612100    -0.73800
O2590       O  0.96069868  0.18401393  0.53578207    -0.72600
Cu2591     Cu  0.53348715  0.23795191  0.53721398     1.04600
Cu2592     Cu  0.95488968  0.25941152  0.53589649     1.04300
C2593       C  0.00190094  0.16019519  0.53639434     0.93700
C2594       C  0.99874037  0.35597069  0.53678098     0.92800
C2595       C  0.48175541  0.23360388  0.57033659     0.85000
C2596       C  0.99961384  0.26454429  0.50268229     0.91200
O2597       O  0.80843294  0.99491720  0.56183007    -0.72500
O2598       O  0.78685361  0.99173931  0.51162410    -0.73500
O2599       O  0.79557074  0.06846184  0.53673594    -0.62100
O2600       O  0.78421527  0.42046163  0.53798461    -0.70500
O2601       O  0.70370562  0.42222081  0.53779323    -0.70100
O2602       O  0.71558075  0.07043884  0.54009115    -0.61300
O2603       O  0.70660433  0.99351326  0.51455864    -0.73800
O2604       O  0.72933988  0.00015960  0.56703836    -0.72600
Cu2605     Cu  0.79912212  0.99329105  0.53668256     1.04600
Cu2606     Cu  0.71394601  0.99690030  0.54098121     1.04300
C2607       C  0.77345845  0.99984254  0.57251602     0.93700
C2608       C  0.74268735  0.49078364  0.50302393     0.92800
C2609       C  0.75514398  0.09292313  0.53861118     0.85000
C2610       C  0.74437139  0.39781246  0.53790846     0.91200
O2611       O  0.79243842  0.17071055  0.54066970    -0.72500
O2612       O  0.78632413  0.31939193  0.53946002    -0.73500
O2613       O  0.77827402  0.24778422  0.56641566    -0.62100
O2614       O  0.79799242  0.24160683  0.51389590    -0.70500
O2615       O  0.71755674  0.24227292  0.51195936    -0.70100
O2616       O  0.69858034  0.24833916  0.56241686    -0.61300
O2617       O  0.70629831  0.32002846  0.53650021    -0.73800
O2618       O  0.71234670  0.17094065  0.53789366    -0.72600
Cu2619     Cu  0.79171066  0.24497403  0.54028890     1.04600
Cu2620     Cu  0.70620467  0.24539033  0.53707358     1.04300
C2621       C  0.75335417  0.14735257  0.53908403     0.93700
C2622       C  0.74563059  0.34324681  0.53795084     0.92800
C2623       C  0.73480101  0.24969037  0.57256474     0.85000
C2624       C  0.75930662  0.23977277  0.50478001     0.91200
C2625       C  0.68313821  0.18531392  0.10152081    -0.20900
C2626       C  0.69338566  0.22495844  0.09096295    -0.08900
C2627       C  0.70324004  0.26972211  0.09883086     0.29900
C2628       C  0.70278941  0.27429760  0.11680888    -0.20900
C2629       C  0.69124341  0.23493361  0.12725756    -0.08900
C2630       C  0.68195335  0.19030206  0.11948209     0.29900
F2631       F  0.67189326  0.15142996  0.12932433    -0.19500
H2632       H  0.67558134  0.15046587  0.09588352     0.18300
H2633       H  0.71198104  0.30848063  0.12261178     0.18300
F2634       F  0.71418444  0.30895272  0.08924303    -0.19400
C2635       C  0.73506497  0.02381732  0.10054968    -0.20900
C2636       C  0.75458173  0.98560134  0.09035395    -0.08900
C2637       C  0.77903046  0.46118949  0.09492814     0.29900
C2638       C  0.77716770  0.44929895  0.11245262    -0.20900
C2639       C  0.74398015  0.97442455  0.12662482    -0.08900
C2640       C  0.72981054  0.01837117  0.11849503     0.29900
F2641       F  0.71264337  0.05669785  0.12798865    -0.19500
H2642       H  0.72416014  0.05805450  0.09465828     0.18300
H2643       H  0.78502744  0.41216917  0.11635174     0.18300
F2644       F  0.79091182  0.42495428  0.08362594    -0.19400
C2645       C  0.99815554  0.21220861  0.09959506    -0.20900
C2646       C  0.95240493  0.20923009  0.09169921    -0.08900
C2647       C  0.91056441  0.21201862  0.10216411     0.29900
C2648       C  0.91443012  0.21826660  0.12014656    -0.20900
C2649       C  0.96013142  0.22200742  0.12809600    -0.08900
C2650       C  0.00208250  0.21868001  0.11757424     0.29900
F2651       F  0.04690762  0.22195580  0.12468710    -0.19500
H2652       H  0.03088152  0.21047008  0.09176648     0.18300
H2653       H  0.38227954  0.19717552  0.12823856     0.18300
F2654       F  0.36605557  0.18541749  0.09534605    -0.19400
C2655       C  0.50243173  0.98485154  0.10187620    -0.20900
C2656       C  0.01370244  0.02127979  0.08814682    -0.08900
C2657       C  0.03173872  0.06510437  0.09446478     0.29900
C2658       C  0.02898865  0.07652428  0.11204496    -0.20900
C2659       C  0.01007601  0.04389317  0.12393259    -0.08900
C2660       C  0.49950285  0.99557923  0.11959435     0.29900
F2661       F  0.51024382  0.47824421  0.12708168    -0.19500
H2662       H  0.51120475  0.47767759  0.09359611     0.18300
H2663       H  0.04235584  0.11083005  0.11642001     0.18300
F2664       F  0.05298893  0.09676740  0.08367538    -0.19400
C2665       C  0.74655518  0.22301790  0.36916514    -0.20900
C2666       C  0.69836172  0.21383839  0.36439738    -0.08900
C2667       C  0.66425316  0.20472791  0.37729984     0.29900
C2668       C  0.67758588  0.20709020  0.39465826    -0.20900
C2669       C  0.72510323  0.21888545  0.39956086    -0.08900
C2670       C  0.75991312  0.22576253  0.38658302     0.29900
F2671       F  0.80610804  0.23695544  0.39064718    -0.19500
H2672       H  0.77347855  0.22978235  0.35930285     0.18300
H2673       H  0.65011307  0.20046298  0.40432683     0.18300
F2674       F  0.61773355  0.19499638  0.37318946    -0.19400
C2675       C  0.84541076  0.44442354  0.37436084    -0.20900
C2676       C  0.80792287  0.43813819  0.36248200    -0.08900
C2677       C  0.72995337  0.97983225  0.36952164     0.29900
C2678       C  0.72374458  0.98321183  0.38745149    -0.20900
C2679       C  0.78612620  0.45878568  0.39774610    -0.08900
C2680       C  0.83489955  0.45419603  0.39178799     0.29900
F2681       F  0.87280849  0.46017782  0.40266296    -0.19500
H2682       H  0.88285208  0.44381933  0.36999604     0.18300
H2683       H  0.69036042  0.99973724  0.39255676     0.18300
F2684       F  0.69380419  0.99731377  0.35908638    -0.19400
C2685       C  0.04775389  0.30413696  0.37031520    -0.20900
C2686       C  0.00569375  0.30335976  0.36019780    -0.08900
C2687       C  0.96106696  0.29396660  0.36833475     0.29900
C2688       C  0.95861090  0.28650175  0.38618192    -0.20900
C2689       C  0.00065447  0.28757254  0.39636316    -0.08900
C2690       C  0.04545235  0.29667008  0.38817216     0.29900
F2691       F  0.59218262  0.28203067  0.39744281    -0.19500
H2692       H  0.59266803  0.28618329  0.36412869     0.18300
H2693       H  0.92371496  0.27962479  0.39200646     0.18300
F2694       F  0.91965008  0.29161825  0.35893428    -0.19400
C2695       C  0.02137933  0.05698218  0.38630164    -0.20900
C2696       C  0.97126189  0.54732298  0.39591369    -0.08900
C2697       C  0.92437993  0.55858024  0.38915479     0.29900
C2698       C  0.91787666  0.56783350  0.37151076    -0.20900
C2699       C  0.95787749  0.56789651  0.36030520    -0.08900
C2700       C  0.01466719  0.06886537  0.36889448     0.29900
F2701       F  0.52320376  0.05538897  0.35676466    -0.19500
H2702       H  0.53430699  0.03262602  0.38902261     0.18300
H2703       H  0.88138959  0.57319451  0.36659116     0.18300
F2704       F  0.88447396  0.56052168  0.39951007    -0.19400
C2705       C  0.67637340  0.20872803  0.86827789    -0.20900
C2706       C  0.67250565  0.25752075  0.86303429    -0.08900
C2707       C  0.67259608  0.29415997  0.87551808     0.29900
C2708       C  0.67713773  0.28222391  0.89295289    -0.20900
C2709       C  0.68144439  0.23340877  0.89838143    -0.08900
C2710       C  0.68074213  0.19661608  0.88579899     0.29900
F2711       F  0.68427014  0.14918150  0.89034596    -0.19500
H2712       H  0.67653829  0.17999097  0.85871636     0.18300
H2713       H  0.67707982  0.31162463  0.90223565     0.18300
F2714       F  0.66808426  0.34146008  0.87082505    -0.19400
C2715       C  0.78537602  0.03351295  0.88943990    -0.20900
C2716       C  0.78189780  0.98731731  0.89700074    -0.08900
C2717       C  0.78922167  0.94592835  0.88654105     0.29900
C2718       C  0.79840680  0.95104185  0.86886484    -0.20900
C2719       C  0.80070311  0.99725576  0.86142488    -0.08900
C2720       C  0.79517353  0.03846844  0.87189383     0.29900
F2721       F  0.79805469  0.08347474  0.86504399    -0.19500
H2722       H  0.78073320  0.06621238  0.89711713     0.18300
H2723       H  0.80256648  0.91890514  0.86084928     0.18300
F2724       F  0.78736969  0.90072631  0.89329041    -0.19400
C2725       C  0.42932420  0.20710413  0.86726628    -0.20900
C2726       C  0.91679995  0.17839506  0.86065379    -0.08900
C2727       C  0.92739539  0.13865220  0.87146570     0.29900
C2728       C  0.93288305  0.14551320  0.88928419    -0.20900
C2729       C  0.92775896  0.19208758  0.89680465    -0.08900
C2730       C  0.43046082  0.21856996  0.88493785     0.29900
F2731       F  0.42141748  0.26518099  0.88994460    -0.19500
H2732       H  0.42187434  0.23584746  0.85803312     0.18300
H2733       H  0.94183111  0.11412581  0.89718290     0.18300
F2734       F  0.93398999  0.09344380  0.86471982    -0.19400
C2735       C  0.05994643  0.89667962  0.87239571    -0.20900
C2736       C  0.05757789  0.93327536  0.85993151    -0.08900
C2737       C  0.55049170  0.98958845  0.86774807     0.29900
C2738       C  0.54584512  0.99917088  0.88547816    -0.20900
C2739       C  0.03772508  0.95518628  0.89530736    -0.08900
C2740       C  0.05050356  0.90725510  0.88983437     0.29900
F2741       F  0.02662219  0.43824336  0.89727827    -0.19500
H2742       H  0.06903501  0.85970142  0.86861666     0.18300
H2743       H  0.55891119  0.03281516  0.89058748     0.18300
F2744       F  0.57022524  0.02342198  0.85746171    -0.19400
C2745       C  0.74933316  0.24764577  0.62150347    -0.20900
C2746       C  0.70214034  0.26191548  0.62696004    -0.08900
C2747       C  0.66624788  0.27238104  0.61461992     0.29900
C2748       C  0.67752198  0.26863873  0.59703152    -0.20900
C2749       C  0.72479530  0.25422339  0.59140236    -0.08900
C2750       C  0.76071394  0.24377485  0.60388429     0.29900
F2751       F  0.80625762  0.22849956  0.59912624    -0.19500
H2752       H  0.77726734  0.23898026  0.63096663     0.18300
H2753       H  0.64898492  0.27705972  0.58778270     0.18300
F2754       F  0.62035489  0.28590604  0.61959852    -0.19400
C2755       C  0.74912498  0.01166882  0.60376186    -0.20900
C2756       C  0.78568537  0.00663824  0.59111000    -0.08900
C2757       C  0.78507908  0.53363917  0.59792983     0.29900
C2758       C  0.78445611  0.54461059  0.61560008    -0.20900
C2759       C  0.81036112  0.02112289  0.62621207    -0.08900
C2760       C  0.76125814  0.01889379  0.62115251     0.29900
F2761       F  0.72509982  0.02240113  0.63311586    -0.19500
H2762       H  0.71117947  0.00976424  0.60022998     0.18300
H2763       H  0.81543336  0.56135863  0.62140792     0.18300
F2764       F  0.82439850  0.54557912  0.58844146    -0.19400
C2765       C  0.92369617  0.24288471  0.61423067    -0.20900
C2766       C  0.45541033  0.19991043  0.62400737    -0.08900
C2767       C  0.50307525  0.20749062  0.61817449     0.29900
C2768       C  0.51184246  0.21960036  0.60085235    -0.20900
C2769       C  0.47308446  0.22506543  0.58913249    -0.08900
C2770       C  0.93310278  0.25219998  0.59682080     0.29900
F2771       F  0.89575937  0.27007538  0.58702701    -0.19500
H2772       H  0.88774159  0.25108001  0.61945942     0.18300
H2773       H  0.54890284  0.22426020  0.59659795     0.18300
F2774       F  0.54108794  0.20321111  0.62928590    -0.19400
C2775       C  0.57062439  0.96533659  0.59429333    -0.20900
C2776       C  0.51291863  0.47433017  0.59049523    -0.08900
C2777       C  0.99401830  0.49993439  0.60053887     0.29900
C2778       C  0.00620177  0.49205502  0.61789704    -0.20900
C2779       C  0.52747578  0.45418999  0.62606655    -0.08900
C2780       C  0.58203308  0.95377224  0.61142091     0.29900
F2781       F  0.62938703  0.94952974  0.61627593    -0.19500
H2782       H  0.60043973  0.96993040  0.58535945     0.18300
H2783       H  0.97888175  0.49970453  0.62763711     0.18300
F2784       F  0.94861842  0.51734476  0.59657506    -0.19400
N2785       N  0.04528353  0.53644927  0.71252801    -0.36200
N2786       N  0.55291054  0.49101923  0.67138497    -0.56700
N2787       N  0.51754448  0.90501952  0.66758831    -0.36200
N2788       N  0.06250605  0.90168224  0.70464030    -0.56700
C2789       C  0.06709097  0.56299123  0.70039339     0.27400
C2790       C  0.07963286  0.52276019  0.72408602     0.27400
C2791       C  0.53732285  0.90344266  0.65147415     0.27400
C2792       C  0.50202220  0.86025359  0.67111107     0.27400
C2793       C  0.56424642  0.53633816  0.67552559     0.36000
C2794       C  0.55532669  0.48703841  0.65413774     0.36000
C2795       C  0.06966046  0.90485125  0.72171654     0.36000
C2796       C  0.06944077  0.85503876  0.70020290     0.36000
C2797       C  0.11588772  0.56680686  0.70430386    -0.21500
C2798       C  0.12367718  0.54167593  0.71947637    -0.21500
C2799       C  0.53499774  0.85704240  0.64487263    -0.21500
C2800       C  0.51504362  0.82921434  0.65762358    -0.21500
C2801       C  0.57893887  0.56029311  0.66079797    -0.22500
C2802       C  0.57291918  0.52902651  0.64711468    -0.22500
C2803       C  0.08513993  0.86042800  0.72811591    -0.22500
C2804       C  0.08606271  0.82870865  0.71429870    -0.22500
C2805       C  0.54457179  0.55872728  0.69046507    -0.17900
C2806       C  0.07713816  0.47998139  0.73345807    -0.17900
C2807       C  0.04602815  0.83587075  0.68578695    -0.17900
C2808       C  0.55578935  0.94325979  0.64233108    -0.17900
H2809       H  0.14320701  0.58378756  0.69656738     0.15000
H2810       H  0.15875072  0.53321195  0.72522151     0.15000
H2811       H  0.54737101  0.84442820  0.63234612     0.15000
H2812       H  0.51070263  0.79050961  0.65703405     0.15000
H2813       H  0.58683043  0.59806458  0.65976873     0.13300
H2814       H  0.57677057  0.53778863  0.63357503     0.13300
H2815       H  0.09287051  0.85198765  0.74145448     0.13300
H2816       H  0.09272834  0.78988958  0.71481536     0.13300
H2817       H  0.01028031  0.52310363  0.71188943     0.26600
H2818       H  0.50960797  0.93568878  0.67511585     0.26600
N2819       N  0.98921420  0.63282425  0.71210029    -0.36200
N2820       N  0.47667161  0.66068811  0.66810398    -0.56700
N2821       N  0.41939645  0.74871982  0.66766356    -0.36200
N2822       N  0.98209815  0.73426925  0.70830905    -0.56700
C2823       C  0.96703435  0.60580241  0.70024965     0.27400
C2824       C  0.95518070  0.64706179  0.72371256     0.27400
C2825       C  0.42459124  0.74334947  0.65046188     0.27400
C2826       C  0.41605489  0.79652625  0.67090023     0.27400
C2827       C  0.48773547  0.61444008  0.67244287     0.36000
C2828       C  0.45939629  0.65969833  0.65176920     0.36000
C2829       C  0.97168794  0.73173019  0.72545037     0.36000
C2830       C  0.99349020  0.78041428  0.70498112     0.36000
C2831       C  0.91822434  0.60267492  0.70426890    -0.21500
C2832       C  0.91087185  0.62899917  0.71923565    -0.21500
C2833       C  0.41603695  0.78787984  0.64247683    -0.21500
C2834       C  0.41064885  0.82170663  0.65553305    -0.21500
C2835       C  0.47448450  0.58378658  0.65915958    -0.22500
C2836       C  0.45887928  0.61270587  0.64568242    -0.22500
C2837       C  0.97338738  0.77713946  0.73290187    -0.22500
C2838       C  0.98556948  0.80822076  0.71975182    -0.22500
C2839       C  0.98955139  0.58905496  0.68502016    -0.17900
C2840       C  0.95934035  0.68827154  0.73380038    -0.17900
C2841       C  0.00870486  0.79680701  0.68844874    -0.17900
C2842       C  0.44397598  0.70097918  0.64234583    -0.17900
H2843       H  0.89064670  0.58536523  0.69674865     0.15000
H2844       H  0.87597890  0.63826836  0.72495329     0.15000
H2845       H  0.41935855  0.79623025  0.62889119     0.15000
H2846       H  0.40986898  0.86064899  0.65389647     0.15000
H2847       H  0.47435397  0.54470067  0.65936487     0.13300
H2848       H  0.44565922  0.60059882  0.63330316     0.13300
H2849       H  0.96527470  0.78702158  0.74616544     0.13300
H2850       H  0.98727072  0.84703209  0.72077199     0.13300
H2851       H  0.02441806  0.64565497  0.71131004     0.26600
H2852       H  0.00552012  0.70862021  0.67307042     0.26600
N2853       N  0.73266154  0.59890746  0.70652483    -0.36200
N2854       N  0.84957550  0.97706004  0.70906358    -0.56700
N2855       N  0.85014880  0.97849215  0.67031257    -0.36200
N2856       N  0.71770507  0.59187437  0.66868431    -0.56700
C2857       C  0.75905809  0.59963104  0.72125786     0.27400
C2858       C  0.72767013  0.64502023  0.70102500     0.27400
C2859       C  0.85166862  0.93084667  0.67392377     0.27400
C2860       C  0.84486951  0.98281744  0.65304040     0.27400
C2861       C  0.84559581  0.98056309  0.72635909     0.36000
C2862       C  0.85148510  0.92961120  0.70508115     0.36000
C2863       C  0.70863377  0.63952028  0.67103047     0.36000
C2864       C  0.73028154  0.58525135  0.65197260     0.36000
C2865       C  0.77136355  0.64657080  0.72500431    -0.21500
C2866       C  0.75295639  0.67519319  0.71185367    -0.21500
C2867       C  0.85643954  0.90460105  0.65867721    -0.21500
C2868       C  0.85261300  0.93766601  0.64536052    -0.21500
C2869       C  0.85149404  0.93491874  0.73368321    -0.22500
C2870       C  0.85501444  0.90247855  0.72010113    -0.22500
C2871       C  0.72060060  0.66391231  0.65608177    -0.22500
C2872       C  0.73181359  0.62940109  0.64368497    -0.22500
C2873       C  0.76875888  0.55945046  0.73205458    -0.17900
C2874       C  0.69714072  0.66025709  0.68729923    -0.17900
C2875       C  0.74482956  0.54014325  0.64475374    -0.17900
C2876       C  0.83206547  0.91311068  0.68939824    -0.17900
H2877       H  0.79079591  0.65876882  0.73620530     0.15000
H2878       H  0.75576832  0.71405872  0.71079773     0.15000
H2879       H  0.85523676  0.86565181  0.65728275     0.15000
H2880       H  0.84856451  0.92849411  0.63185996     0.15000
H2881       H  0.84661639  0.92527919  0.74707615     0.13300
H2882       H  0.85343282  0.86348894  0.72110579     0.13300
H2883       H  0.72535465  0.70219497  0.65463571     0.13300
H2884       H  0.74416753  0.63619466  0.63066108     0.13300
H2885       H  0.71295795  0.57032815  0.70173672     0.26600
H2886       H  0.84671896  0.00601981  0.67943841     0.26600
N2887       N  0.66280280  0.77065669  0.70994041    -0.36200
N2888       N  0.73529024  0.83994384  0.70920985    -0.56700
N2889       N  0.74020351  0.83412968  0.66941463    -0.36200
N2890       N  0.66445623  0.77182156  0.67101587    -0.56700
C2891       C  0.67271286  0.77310986  0.72700924     0.27400
C2892       C  0.65419121  0.72408659  0.70621921     0.27400
C2893       C  0.76018348  0.87634004  0.67358008     0.27400
C2894       C  0.72096502  0.83965684  0.65336542     0.27400
C2895       C  0.71534067  0.84906026  0.72499502     0.36000
C2896       C  0.75689583  0.88076847  0.70439884     0.36000
C2897       C  0.64429928  0.73014518  0.67532192     0.36000
C2898       C  0.66283733  0.77523308  0.65372802     0.36000
C2899       C  0.66405572  0.72868742  0.73458771    -0.21500
C2900       C  0.65151023  0.69789048  0.72143612    -0.21500
C2901       C  0.75051780  0.90987029  0.66058497    -0.21500
C2902       C  0.72796256  0.88589835  0.64739169    -0.21500
C2903       C  0.72366757  0.89612151  0.72998422    -0.22500
C2904       C  0.74778833  0.91685048  0.71654981    -0.22500
C2905       C  0.62379496  0.70980288  0.66083051    -0.22500
C2906       C  0.63567699  0.73844846  0.64699330    -0.22500
C2907       C  0.69361006  0.81336107  0.73524092    -0.17900
C2908       C  0.66189687  0.70384246  0.68961038    -0.17900
C2909       C  0.69393701  0.80517319  0.64451069    -0.17900
C2910       C  0.78496731  0.88525090  0.68920111    -0.17900
H2911       H  0.67096880  0.71779622  0.74778296     0.15000
H2912       H  0.64680389  0.65930943  0.72266250     0.15000
H2913       H  0.75761200  0.94804438  0.66081839     0.15000
H2914       H  0.71484239  0.90158289  0.63539696     0.15000
H2915       H  0.71440471  0.91369827  0.74203335     0.13300
H2916       H  0.75751739  0.95424211  0.71585277     0.13300
H2917       H  0.60844773  0.67459412  0.65996748     0.13300
H2918       H  0.63062712  0.72929243  0.63355489     0.13300
H2919       H  0.66516066  0.79856011  0.70101576     0.26600
H2920       H  0.74343131  0.80237417  0.67667894     0.26600
N2921       N  0.59052867  0.46895365  0.77992508    -0.36200
N2922       N  0.59154002  0.46858521  0.81871967    -0.56700
N2923       N  0.01379940  0.50633003  0.81455090    -0.36200
N2924       N  0.01873362  0.48936862  0.77730653    -0.56700
C2925       C  0.63344487  0.48738848  0.78415191     0.27400
C2926       C  0.59498559  0.45172021  0.76355192     0.27400
C2927       C  0.02002971  0.49859807  0.83167056     0.27400
C2928       C  0.96835555  0.49450748  0.81049422     0.27400
C2929       C  0.63399389  0.48834825  0.81485975     0.36000
C2930       C  0.59602227  0.45124863  0.83491897     0.36000
C2931       C  0.02763690  0.47820300  0.76064084     0.36000
C2932       C  0.97064302  0.48595747  0.77980266     0.36000
C2933       C  0.66649795  0.47944554  0.77087148    -0.21500
C2934       C  0.64130827  0.45973170  0.75750008    -0.21500
C2935       C  0.97710718  0.48144150  0.83850647    -0.21500
C2936       C  0.94481183  0.47791657  0.82501262    -0.21500
C2937       C  0.66698678  0.48053646  0.82818466    -0.22500
C2938       C  0.64201333  0.45882905  0.84129673    -0.22500
C2939       C  0.98548667  0.46314025  0.75282970    -0.22500
C2940       C  0.94954105  0.46624957  0.76528531    -0.22500
C2941       C  0.64173040  0.51360105  0.79940433    -0.17900
C2942       C  0.07330860  0.48309093  0.75264196    -0.17900
C2943       C  0.94675383  0.50578360  0.79448111    -0.17900
C2944       C  0.06294139  0.50794111  0.84111858    -0.17900
H2945       H  0.70436477  0.48843769  0.77062045     0.15000
H2946       H  0.65565307  0.45301435  0.74481473     0.15000
H2947       H  0.96883761  0.47318106  0.85179095     0.15000
H2948       H  0.90742223  0.46730038  0.82592930     0.15000
H2949       H  0.70465279  0.49036403  0.82854211     0.13300
H2950       H  0.65580012  0.44968767  0.85400725     0.13300
H2951       H  0.98071330  0.45229554  0.73953972     0.13300
H2952       H  0.91162124  0.45844713  0.76348353     0.13300
H2953       H  0.55874956  0.47426508  0.78715542     0.26600
H2954       H  0.03537368  0.52566332  0.80624837     0.26600
N2955       N  0.48505914  0.68838263  0.77637895    -0.36200
N2956       N  0.91096347  0.71955472  0.77793416    -0.56700
N2957       N  0.90944539  0.72124739  0.81718551    -0.36200
N2958       N  0.48809828  0.68490671  0.81485502    -0.56700
C2959       C  0.47756756  0.69255734  0.75913839     0.27400
C2960       C  0.53338901  0.68903719  0.77916759     0.27400
C2961       C  0.86329799  0.72808459  0.81177870     0.27400
C2962       C  0.90707854  0.70265153  0.83331497     0.27400
C2963       C  0.91280782  0.70533031  0.76122080     0.36000
C2964       C  0.86534285  0.73664845  0.78105636     0.36000
C2965       C  0.53516222  0.67826067  0.81051830     0.36000
C2966       C  0.48486008  0.68263265  0.83221501     0.36000
C2967       C  0.52215354  0.68932878  0.75069471    -0.21500
C2968       C  0.55738506  0.68649741  0.76337440    -0.21500
C2969       C  0.83152932  0.71050188  0.82401474    -0.21500
C2970       C  0.85923966  0.69708507  0.83810070    -0.21500
C2971       C  0.86794129  0.71335375  0.75360359    -0.22500
C2972       C  0.83707594  0.73008497  0.76648815    -0.22500
C2973       C  0.56154666  0.66546589  0.82517678    -0.22500
C2974       C  0.52979020  0.66884634  0.83901142    -0.22500
C2975       C  0.95424362  0.68396037  0.75300639    -0.17900
C2976       C  0.55451645  0.69949845  0.79544449    -0.17900
C2977       C  0.94751429  0.69033736  0.84362939    -0.17900
C2978       C  0.84973401  0.75586432  0.79723259    -0.17900
H2979       H  0.52900539  0.69217945  0.73697459     0.15000
H2980       H  0.59625300  0.68603597  0.76122952     0.15000
H2981       H  0.79224174  0.71056175  0.82328676     0.15000
H2982       H  0.84603344  0.68331750  0.85023311     0.15000
H2983       H  0.85802892  0.70624291  0.74040176     0.13300
H2984       H  0.79819338  0.73611843  0.76527868     0.13300
H2985       H  0.60065123  0.66173431  0.82612701     0.13300
H2986       H  0.54002591  0.66652198  0.85246561     0.13300
H2987       H  0.45864642  0.68713094  0.78591841     0.26600
H2988       H  0.94019819  0.73409993  0.81101291     0.26600
N2989       N  0.72919443  0.58093292  0.77825763    -0.36200
N2990       N  0.73386670  0.58776934  0.81626554    -0.56700
N2991       N  0.83320661  0.55905159  0.81386996    -0.36200
N2992       N  0.82954753  0.55616844  0.77562185    -0.56700
C2993       C  0.68236260  0.58044411  0.78293111     0.27400
C2994       C  0.73171740  0.57972304  0.76087772     0.27400
C2995       C  0.83082175  0.57597975  0.83034792     0.27400
C2996       C  0.88042506  0.55850515  0.80902093     0.27400
C2997       C  0.68604900  0.58189314  0.81406583     0.36000
C2998       C  0.74183864  0.58805266  0.83336100     0.36000
C2999       C  0.82092394  0.56176837  0.75858233     0.36000
C3000       C  0.87783141  0.55035143  0.77770221     0.36000
C3001       C  0.65345034  0.58494319  0.76832142    -0.21500
C3002       C  0.68472721  0.58457352  0.75430366    -0.21500
C3003       C  0.87684570  0.58609213  0.83600740    -0.21500
C3004       C  0.90775833  0.57758545  0.82228274    -0.21500
C3005       C  0.66236796  0.58444571  0.82986889    -0.22500
C3006       C  0.69790312  0.58831784  0.84221474    -0.22500
C3007       C  0.86436327  0.56042755  0.74968900    -0.22500
C3008       C  0.90056533  0.55707399  0.76190635    -0.22500
C3009       C  0.66801990  0.56103801  0.79889728    -0.17900
C3010       C  0.77429104  0.56794079  0.75104565    -0.17900
C3011       C  0.89972073  0.53675992  0.79364315    -0.17900
C3012       C  0.78841499  0.58125895  0.84066161    -0.17900
H3013       H  0.61427555  0.58282843  0.76776502     0.15000
H3014       H  0.67377456  0.58303112  0.74090446     0.15000
H3015       H  0.88673656  0.59937902  0.84860709     0.15000
H3016       H  0.94646122  0.58282010  0.82234728     0.15000
H3017       H  0.62442085  0.57807753  0.83234757     0.13300
H3018       H  0.69216870  0.58630137  0.85601709     0.13300
H3019       H  0.86915310  0.56128241  0.73589159     0.13300
H3020       H  0.93911228  0.55841607  0.75928404     0.13300
H3021       H  0.75764026  0.57552670  0.78711650     0.26600
H3022       H  0.80570725  0.54180425  0.80720526     0.26600
N3023       N  0.65621421  0.77465618  0.77924019    -0.36200
N3024       N  0.74455843  0.82099208  0.78071391    -0.56700
N3025       N  0.74332970  0.80913060  0.81882028    -0.36200
N3026       N  0.65486097  0.76077992  0.81795335    -0.56700
C3027       C  0.65528317  0.80107503  0.76446270     0.27400
C3028       C  0.60978039  0.76386721  0.78283150     0.27400
C3029       C  0.79128661  0.80989368  0.81541717     0.27400
C3030       C  0.73789056  0.80262283  0.83604340     0.27400
C3031       C  0.74006005  0.82455954  0.76345432     0.36000
C3032       C  0.79221694  0.82103424  0.78432645     0.36000
C3033       C  0.60868598  0.75362362  0.81327743     0.36000
C3034       C  0.65302673  0.77792137  0.83432201     0.36000
C3035       C  0.60803632  0.80791332  0.75898742    -0.21500
C3036       C  0.57885208  0.78608030  0.77087926    -0.21500
C3037       C  0.81642068  0.81144042  0.83094100    -0.21500
C3038       C  0.78269366  0.80618884  0.84400085    -0.21500
C3039       C  0.78513702  0.83243665  0.75613346    -0.22500
C3040       C  0.81802876  0.83136750  0.76951462    -0.22500
C3041       C  0.57708411  0.76847516  0.82643493    -0.22500
C3042       C  0.60545701  0.78195940  0.84009792    -0.22500
C3043       C  0.69634521  0.81474437  0.75478075    -0.17900
C3044       C  0.59532685  0.73541014  0.79698267    -0.17900
C3045       C  0.69423493  0.78877712  0.84416249    -0.17900
C3046       C  0.81144450  0.79724386  0.79901746    -0.17900
H3047       H  0.59696199  0.82640325  0.74738371     0.15000
H3048       H  0.53954003  0.78579872  0.77058349     0.15000
H3049       H  0.85541480  0.81036653  0.83261914     0.15000
H3050       H  0.79106295  0.80112751  0.85753742     0.15000
H3051       H  0.79486554  0.83295178  0.74262983     0.13300
H3052       H  0.85704092  0.82970611  0.76808263     0.13300
H3053       H  0.53775289  0.76963975  0.82615979     0.13300
H3054       H  0.59266030  0.79518192  0.85254181     0.13300
H3055       H  0.68667546  0.75928319  0.78543384     0.26600
H3056       H  0.71626238  0.80950274  0.80954555     0.26600
N3057       N  0.95199179  0.60923627  0.27593872    -0.36200
N3058       N  0.92453454  0.60234206  0.31399634    -0.56700
N3059       N  0.01223838  0.03018597  0.31991292    -0.36200
N3060       N  0.03618045  0.03559255  0.28133924    -0.56700
C3061       C  0.93818447  0.65514931  0.28029552     0.27400
C3062       C  0.97794766  0.61226952  0.26100271     0.27400
C3063       C  0.98489584  0.02978377  0.33445341     0.27400
C3064       C  0.01297412  0.98445122  0.31392738     0.27400
C3065       C  0.89665619  0.64078190  0.30903182     0.36000
C3066       C  0.92273751  0.60101058  0.33150997     0.36000
C3067       C  0.03776884  0.03525551  0.26384826     0.36000
C3068       C  0.05990927  0.99453239  0.28651342     0.36000
C3069       C  0.95715755  0.68648530  0.26809293    -0.21500
C3070       C  0.97965047  0.65933668  0.25552098    -0.21500
C3071       C  0.96726411  0.98486515  0.33763971    -0.21500
C3072       C  0.98310134  0.95669211  0.32427792    -0.21500
C3073       C  0.87210331  0.65994831  0.32349164    -0.22500
C3074       C  0.89052080  0.63620918  0.33779077    -0.22500
C3075       C  0.06699712  0.99714180  0.25799235    -0.22500
C3076       C  0.08319802  0.97270631  0.27237907    -0.22500
C3077       C  0.91041446  0.67053677  0.29507344    -0.17900
C3078       C  0.00856627  0.06613823  0.25343905    -0.17900
C3079       C  0.04060211  0.96599811  0.29979002    -0.17900
C3080       C  0.96398492  0.07016237  0.34236331    -0.17900
H3081       H  0.95827475  0.72525027  0.26847946     0.15000
H3082       H  0.00008666  0.67306155  0.24473903     0.15000
H3083       H  0.94109804  0.97518130  0.34740108     0.15000
H3084       H  0.97136623  0.92039677  0.32214146     0.15000
H3085       H  0.84937318  0.69282793  0.32396403     0.13300
H3086       H  0.88253942  0.64543584  0.35110057     0.13300
H3087       H  0.07048396  0.98417247  0.24492421     0.13300
H3088       H  0.10088037  0.93711712  0.27208925     0.13300
H3089       H  0.94402021  0.57769720  0.28260420     0.26600
H3090       H  0.02910849  0.05993146  0.31456729     0.26600
N3091       N  0.98385645  0.86066999  0.27830646    -0.36200
N3092       N  0.90811770  0.79694576  0.28306474    -0.56700
N3093       N  0.94500521  0.78027562  0.31965216    -0.36200
N3094       N  0.02259520  0.84443336  0.31383559    -0.56700
C3095       C  0.95200372  0.86956674  0.26523418     0.27400
C3096       C  0.99752538  0.90447993  0.28374589     0.27400
C3097       C  0.94382728  0.73669686  0.31190133     0.27400
C3098       C  0.97646235  0.77456189  0.33295107     0.27400
C3099       C  0.90051745  0.80227167  0.26590096     0.36000
C3100       C  0.88647700  0.75632067  0.28788063     0.36000
C3101       C  0.05079499  0.88033671  0.30869029     0.36000
C3102       C  0.02798311  0.84082880  0.33113933     0.36000
C3103       C  0.94534316  0.91820885  0.26228755    -0.21500
C3104       C  0.97143647  0.94032508  0.27463393    -0.21500
C3105       C  0.97758622  0.70478761  0.31969400    -0.21500
C3106       C  0.99694334  0.72838550  0.33334651    -0.21500
C3107       C  0.86827854  0.76802106  0.26038027    -0.22500
C3108       C  0.85736394  0.74070846  0.27455810    -0.22500
C3109       C  0.07957999  0.89440146  0.32250409    -0.22500
C3110       C  0.06303535  0.87113226  0.33694758    -0.22500
C3111       C  0.92805947  0.83453412  0.25596675    -0.17900
C3112       C  0.03406161  0.91384203  0.29610280    -0.17900
C3113       C  0.99852872  0.81204391  0.34126791    -0.17900
C3114       C  0.91053522  0.72327262  0.29902872    -0.17900
H3115       H  0.92332509  0.93613975  0.25264105     0.15000
H3116       H  0.96987825  0.97882983  0.27668207     0.15000
H3117       H  0.98838045  0.66840115  0.31574562     0.15000
H3118       H  0.02637127  0.71490657  0.34149869     0.15000
H3119       H  0.85721227  0.75861739  0.24759354     0.13300
H3120       H  0.83858585  0.70699377  0.27406046     0.13300
H3121       H  0.10375113  0.92443796  0.32276427     0.13300
H3122       H  0.07416205  0.87729725  0.35013965     0.13300
H3123       H  0.99763450  0.82678208  0.28232884     0.26600
H3124       H  0.92514855  0.81193847  0.31639807     0.26600
N3125       N  0.79160122  0.49619658  0.28083721    -0.36200
N3126       N  0.75616063  0.91540694  0.27878586    -0.56700
N3127       N  0.76225942  0.91550488  0.31715142    -0.36200
N3128       N  0.81594758  0.49659306  0.31911882    -0.56700
C3129       C  0.80198874  0.49304664  0.26379356     0.27400
C3130       C  0.80151958  0.54091845  0.28618379     0.27400
C3131       C  0.76421403  0.86849908  0.31249720     0.27400
C3132       C  0.78100085  0.91873907  0.33328601     0.27400
C3133       C  0.75367177  0.92191143  0.26158791     0.36000
C3134       C  0.75075362  0.86822740  0.28162782     0.36000
C3135       C  0.80072389  0.54305766  0.31714040     0.36000
C3136       C  0.81685254  0.48800013  0.33623112     0.36000
C3137       C  0.81901486  0.53690689  0.25813896    -0.21500
C3138       C  0.81898097  0.56735507  0.27241864    -0.21500
C3139       C  0.78567687  0.84098904  0.32556780    -0.21500
C3140       C  0.79546427  0.87269582  0.33888227    -0.21500
C3141       C  0.75064862  0.87792473  0.25321421    -0.22500
C3142       C  0.75078103  0.84354043  0.26598888    -0.22500
C3143       C  0.79920348  0.56609538  0.33304937    -0.22500
C3144       C  0.80876114  0.53098804  0.34522646    -0.22500
C3145       C  0.75607352  0.96740967  0.25368906    -0.17900
C3146       C  0.78109973  0.56042195  0.30141053    -0.17900
C3147       C  0.78121174  0.96200474  0.34325025    -0.17900
C3148       C  0.73924383  0.85032318  0.29808930    -0.17900
H3149       H  0.82746587  0.54673477  0.24499990     0.15000
H3150       H  0.82629309  0.60560069  0.27236378     0.15000
H3151       H  0.79072424  0.80192073  0.32586737     0.15000
H3152       H  0.81054409  0.86262778  0.35129941     0.15000
H3153       H  0.74900833  0.87127278  0.23945310     0.13300
H3154       H  0.75091768  0.80494046  0.26387510     0.13300
H3155       H  0.78984545  0.60369002  0.33576609     0.13300
H3156       H  0.80625088  0.53600268  0.35906791     0.13300
H3157       H  0.76947230  0.47337603  0.28778549     0.26600
H3158       H  0.74143413  0.94189434  0.31069429     0.26600
N3159       N  0.69514729  0.74833550  0.28088421    -0.36200
N3160       N  0.68104920  0.75308649  0.32037045    -0.56700
N3161       N  0.71313043  0.65711019  0.31995524    -0.36200
N3162       N  0.69874957  0.65040178  0.28111783    -0.56700
C3163       C  0.67875151  0.79221013  0.28620476     0.27400
C3164       C  0.67748360  0.74089144  0.26482297     0.27400
C3165       C  0.69703360  0.66101476  0.33642900     0.27400
C3166       C  0.71227154  0.61011500  0.31560917     0.27400
C3167       C  0.68377227  0.80032090  0.31680929     0.36000
C3168       C  0.68513865  0.74903502  0.33759869     0.36000
C3169       C  0.69660130  0.65397648  0.26374195     0.36000
C3170       C  0.71239947  0.60445747  0.28472555     0.36000
C3171       C  0.65048794  0.81415829  0.27348649    -0.21500
C3172       C  0.65039424  0.78200682  0.25975504    -0.21500
C3173       C  0.68569057  0.61582252  0.34264506    -0.21500
C3174       C  0.69447324  0.58343801  0.32923217    -0.21500
C3175       C  0.68238692  0.82728685  0.33195263    -0.22500
C3176       C  0.68402673  0.79441550  0.34528864    -0.22500
C3177       C  0.70471934  0.60878474  0.25638359    -0.22500
C3178       C  0.71155620  0.57702243  0.26979545    -0.22500
C3179       C  0.69849560  0.81568538  0.30043454    -0.17900
C3180       C  0.68766749  0.69820229  0.25497349    -0.17900
C3181       C  0.73418122  0.59117003  0.30058103    -0.17900
C3182       C  0.69437493  0.70453292  0.34588390    -0.17900
H3183       H  0.63480056  0.85071649  0.27364133     0.15000
H3184       H  0.63304994  0.78926640  0.24752144     0.15000
H3185       H  0.67257686  0.60726209  0.35542983     0.15000
H3186       H  0.69100437  0.54454834  0.32970935     0.15000
H3187       H  0.68406346  0.86620802  0.33323891     0.13300
H3188       H  0.68724259  0.80287193  0.35888678     0.13300
H3189       H  0.70815299  0.59926405  0.24299598     0.13300
H3190       H  0.71706724  0.53841017  0.26853630     0.13300
H3191       H  0.72311588  0.72861667  0.28704802     0.26600
H3192       H  0.73028807  0.68336460  0.31273361     0.26600
O3193       O  0.51420247  0.01174987  0.42107141    -0.72500
O3194       O  0.53093234  0.00135538  0.47369807    -0.73500
O3195       O  0.52651206  0.93262085  0.44641166    -0.62100
O3196       O  0.53443664  0.57913924  0.45057139    -0.70500
O3197       O  0.95091617  0.60429895  0.45045332    -0.70100
O3198       O  0.96010947  0.95278793  0.44979586    -0.61300
O3199       O  0.95996121  0.02398646  0.47616259    -0.73800
O3200       O  0.95148565  0.03119515  0.42503906    -0.72600
Cu3201     Cu  0.52749877  0.00603902  0.44724362     1.04600
Cu3202     Cu  0.95457745  0.02747782  0.45059228     1.04300
C3203       C  0.98883436  0.03540413  0.41551336     0.93700
C3204       C  0.00110491  0.01975854  0.48354567     0.92800
C3205       C  0.00100218  0.92874316  0.44875843     0.85000
C3206       C  0.99216710  0.62472002  0.44928542     0.91200
O3207       O  0.96410041  0.77550754  0.47548221    -0.72500
O3208       O  0.95943611  0.78315123  0.42348378    -0.73500
O3209       O  0.95645565  0.70577446  0.44879148    -0.62100
O3210       O  0.96214067  0.85265191  0.45027853    -0.70500
O3211       O  0.53229066  0.83172382  0.44990138    -0.70100
O3212       O  0.53644516  0.68121372  0.44926437    -0.61300
O3213       O  0.53799773  0.75961669  0.42385403    -0.73800
O3214       O  0.53754466  0.75367756  0.47526234    -0.72600
Cu3215     Cu  0.95787260  0.77943773  0.44955830     1.04600
Cu3216     Cu  0.53883246  0.75644897  0.44955166     1.04300
C3217       C  0.00510488  0.77103042  0.48325803     0.93700
C3218       C  0.99973341  0.78248244  0.41513619     0.92800
C3219       C  0.99535476  0.67897755  0.44884024     0.85000
C3220       C  0.00230630  0.87427628  0.44943580     0.91200
O3221       O  0.78349347  0.98140078  0.47806966    -0.72500
O3222       O  0.79365267  0.97380213  0.42692841    -0.73500
O3223       O  0.79785770  0.55227814  0.45165747    -0.62100
O3224       O  0.78668449  0.90357149  0.45319907    -0.70500
O3225       O  0.70624911  0.90709706  0.45189558    -0.70100
O3226       O  0.71826143  0.55450319  0.44745411    -0.61300
O3227       O  0.71332729  0.97805578  0.42484786    -0.73800
O3228       O  0.70283943  0.98511794  0.47757829    -0.72600
Cu3229     Cu  0.79067153  0.97761901  0.45258014     1.04600
Cu3230     Cu  0.70472200  0.98169373  0.45116520     1.04300
C3231       C  0.74281635  0.98546884  0.48599923     0.93700
C3232       C  0.75542777  0.97332768  0.41768813     0.92800
C3233       C  0.75746095  0.57689060  0.45008956     0.85000
C3234       C  0.74632630  0.88185100  0.45244291     0.91200
O3235       O  0.78141342  0.72619546  0.42453674    -0.72500
O3236       O  0.79672426  0.73214342  0.47713210    -0.73500
O3237       O  0.79445623  0.65501214  0.45104338    -0.62100
O3238       O  0.78712396  0.80333097  0.45040944    -0.70500
O3239       O  0.70701789  0.80442179  0.45331404    -0.70100
O3240       O  0.71421082  0.65469068  0.45313074    -0.61300
O3241       O  0.71624976  0.73124006  0.47873628    -0.73800
O3242       O  0.70158964  0.72804720  0.42834209    -0.72600
Cu3243     Cu  0.79286895  0.72925361  0.45068139     1.04600
Cu3244     Cu  0.70723936  0.72955738  0.45353013     1.04300
C3245       C  0.73824981  0.72470639  0.41832587     0.93700
C3246       C  0.75741109  0.73387563  0.48607793     0.92800
C3247       C  0.75535424  0.63135610  0.45150168     0.85000
C3248       C  0.74661370  0.82737911  0.45204430     0.91200
O3249       O  0.58802611  0.95746332  0.03832328    -0.72500
O3250       O  0.94033642  0.95906478  0.03689944    -0.73500
O3251       O  0.01442408  0.95564788  0.01040024    -0.62100
O3252       O  0.01346170  0.96853646  0.06301904    -0.70500
O3253       O  0.02476691  0.58749166  0.05995720    -0.70100
O3254       O  0.02306740  0.58004058  0.00918473    -0.61300
O3255       O  0.94849428  0.57931603  0.03531980    -0.73800
O3256       O  0.59914375  0.58029350  0.03465176    -0.72600
Cu3257     Cu  0.01392240  0.95759213  0.03678997     1.04600
Cu3258     Cu  0.02349270  0.58478445  0.03460821     1.04300
C3259       C  0.62304898  0.53930764  0.03522152     0.93700
C3260       C  0.92775486  0.53832922  0.03619507     0.92800
C3261       C  0.02632482  0.53931132  0.00154837     0.85000
C3262       C  0.02710961  0.54997858  0.06941790     0.91200
O3263       O  0.86537515  0.77165353  0.04055725    -0.72500
O3264       O  0.51477416  0.77071060  0.03891349    -0.73500
O3265       O  0.93822933  0.77459131  0.01392723    -0.62100
O3266       O  0.94319308  0.77376326  0.06618674    -0.70500
O3267       O  0.94533717  0.69338899  0.06650851    -0.70100
O3268       O  0.94346327  0.69423522  0.01409241    -0.61300
O3269       O  0.51668387  0.69044619  0.03898197    -0.73800
O3270       O  0.86988488  0.69141469  0.04037493    -0.72600
Cu3271     Cu  0.93988004  0.77661578  0.04003878     1.04600
Cu3272     Cu  0.94428595  0.69081883  0.04022984     1.04300
C3273       C  0.84412655  0.73104275  0.04025211     0.93700
C3274       C  0.53920556  0.73022284  0.03907750     0.92800
C3275       C  0.94068797  0.73429520  0.00577546     0.85000
C3276       C  0.94635867  0.73387874  0.07455922     0.91200
O3277       O  0.70033538  0.57593432  0.03691769    -0.72500
O3278       O  0.84746069  0.57500235  0.03830493    -0.73500
O3279       O  0.77624951  0.57804585  0.01117215    -0.62100
O3280       O  0.77116852  0.56460031  0.06434625    -0.70500
O3281       O  0.76359526  0.95184763  0.06229902    -0.70100
O3282       O  0.76553744  0.95181180  0.01122491    -0.61300
O3283       O  0.83943214  0.95565048  0.03670586    -0.73800
O3284       O  0.68946875  0.95457809  0.03668267    -0.72600
Cu3285     Cu  0.77373705  0.57630811  0.03780358     1.04600
Cu3286     Cu  0.76467402  0.95079492  0.03675482     1.04300
C3287       C  0.67747856  0.53686334  0.03539042     0.93700
C3288       C  0.87331543  0.53592128  0.03659888     0.92800
C3289       C  0.77827978  0.53902466  0.00200020     0.85000
C3290       C  0.77220718  0.52106936  0.07033174     0.91200
O3291       O  0.76428148  0.76986924  0.03881117    -0.72500
O3292       O  0.61578802  0.76958191  0.03896488    -0.73500
O3293       O  0.69061620  0.77372245  0.06448328    -0.62100
O3294       O  0.68955990  0.76531186  0.01308470    -0.70500
O3295       O  0.69305807  0.68491334  0.01355183    -0.70100
O3296       O  0.69300536  0.69346477  0.06569673    -0.61300
O3297       O  0.61849858  0.68934947  0.03974819    -0.73800
O3298       O  0.76794916  0.68967773  0.03989328    -0.72600
Cu3299     Cu  0.68992030  0.77222933  0.03875023     1.04600
Cu3300     Cu  0.69323172  0.68646179  0.03977950     1.04300
C3301       C  0.78962120  0.73005359  0.03963834     0.93700
C3302       C  0.59366134  0.72960582  0.03930228     0.92800
C3303       C  0.69258689  0.73472023  0.07327784     0.85000
C3304       C  0.69078356  0.72467739  0.00512609     0.91200
N3305       N  0.97758928  0.53787752  0.20797147    -0.36200
N3306       N  0.56505535  0.56737685  0.20893711    -0.56700
N3307       N  0.57083355  0.58483991  0.17048619    -0.36200
N3308       N  0.98172541  0.54211827  0.16815562    -0.56700
C3309       C  0.96920413  0.04603226  0.22514802     0.27400
C3310       C  0.93273370  0.52911562  0.20222785     0.27400
C3311       C  0.61828517  0.58342573  0.17468044     0.27400
C3312       C  0.56822971  0.58044355  0.15313575     0.27400
C3313       C  0.53036584  0.09062601  0.22692585     0.36000
C3314       C  0.60930602  0.58324311  0.20558525     0.36000
C3315       C  0.93632070  0.52860069  0.17145564     0.36000
C3316       C  0.98063199  0.56054448  0.15204223     0.36000
C3317       C  0.92149137  0.05199252  0.23071686    -0.21500
C3318       C  0.89290310  0.03682592  0.21733698    -0.21500
C3319       C  0.64600674  0.58662461  0.15975181    -0.21500
C3320       C  0.61426575  0.58377741  0.14605010    -0.21500
C3321       C  0.56886131  0.11538413  0.23364141    -0.22500
C3322       C  0.60111931  0.12119419  0.22003724    -0.22500
C3323       C  0.90561016  0.54144557  0.15794455    -0.22500
C3324       C  0.93441566  0.55896227  0.14511929    -0.22500
C3325       C  0.00995868  0.06318111  0.23408971    -0.17900
C3326       C  0.92332706  0.50458752  0.18659113    -0.17900
C3327       C  0.02132565  0.57790527  0.14339348    -0.17900
C3328       C  0.63540870  0.56764794  0.19101190    -0.17900
H3329       H  0.90829038  0.06844443  0.24260764     0.15000
H3330       H  0.85358287  0.03910790  0.21704645     0.15000
H3331       H  0.68527779  0.58565429  0.15883850     0.15000
H3332       H  0.62452158  0.57988624  0.13260227     0.15000
H3333       H  0.57419287  0.12575981  0.24696185     0.13300
H3334       H  0.63630573  0.13685582  0.22041089     0.13300
H3335       H  0.86656801  0.53866999  0.15743826     0.13300
H3336       H  0.92241075  0.57202359  0.13260531     0.13300
H3337       H  0.00940440  0.52533723  0.20180509     0.26600
H3338       H  0.54208965  0.58493269  0.17920694     0.26600
N3339       N  0.91561841  0.77753800  0.21340868    -0.36200
N3340       N  0.48476685  0.83370866  0.21145677    -0.56700
N3341       N  0.52657467  0.77613105  0.16614194    -0.36200
N3342       N  0.94180269  0.73712751  0.17784834    -0.56700
C3343       C  0.90232940  0.81111812  0.22547537     0.27400
C3344       C  0.87456402  0.76360500  0.20576743     0.27400
C3345       C  0.52214583  0.81330665  0.17742038     0.27400
C3346       C  0.49139338  0.78198378  0.15419064     0.27400
C3347       C  0.48176326  0.83071185  0.22877949     0.36000
C3348       C  0.53182495  0.83811681  0.20755031     0.36000
C3349       C  0.91181978  0.70523727  0.18494897     0.36000
C3350       C  0.95595313  0.71911169  0.16225172     0.36000
C3351       C  0.85286972  0.82080444  0.22494152    -0.21500
C3352       C  0.83514874  0.79119982  0.21230244    -0.21500
C3353       C  0.48441354  0.84468102  0.17236596    -0.21500
C3354       C  0.46524542  0.82489513  0.15752823    -0.21500
C3355       C  0.52664302  0.83941623  0.23608342    -0.22500
C3356       C  0.55831452  0.84509338  0.22251570    -0.22500
C3357       C  0.91272695  0.66328636  0.17494917    -0.22500
C3358       C  0.94028727  0.67269512  0.16040946    -0.22500
C3359       C  0.93540566  0.83282713  0.23655923    -0.17900
C3360       C  0.87161980  0.72204056  0.19508233    -0.17900
C3361       C  0.97419574  0.74944378  0.14919362    -0.17900
C3362       C  0.55071097  0.81637733  0.19248452    -0.17900
H3363       H  0.83180742  0.84482871  0.23328521     0.15000
H3364       H  0.79717260  0.78867427  0.20895623     0.15000
H3365       H  0.47069308  0.87678455  0.17910573     0.15000
H3366       H  0.43147930  0.83643104  0.15142193     0.15000
H3367       H  0.53742763  0.83611566  0.24944289     0.13300
H3368       H  0.59748314  0.84613033  0.22360325     0.13300
H3369       H  0.88937667  0.63292664  0.17646205     0.18100
H3370       H  0.94338484  0.65103603  0.14889022     0.13300
H3371       H  0.95027995  0.76140812  0.21178216     0.26600
H3372       H  0.54800070  0.74441665  0.16784185     0.26600
N3373       N  0.80043669  0.95566656  0.20804016    -0.36200
N3374       N  0.82217176  0.45093365  0.16796163    -0.56700
N3375       N  0.73391291  0.49859576  0.17111595    -0.36200
N3376       N  0.74043491  0.49531694  0.21072996    -0.56700
C3377       C  0.87549389  0.44146902  0.20182458     0.27400
C3378       C  0.79609084  0.95508118  0.22531358     0.27400
C3379       C  0.73091160  0.48095194  0.15481248     0.27400
C3380       C  0.68856912  0.50095435  0.17759753     0.27400
C3381       C  0.87007608  0.44502979  0.17066617     0.36000
C3382       C  0.81543767  0.45526429  0.15081534     0.36000
C3383       C  0.71367867  0.99369052  0.22673443     0.36000
C3384       C  0.69400442  0.51095247  0.20843423     0.36000
C3385       C  0.87281986  0.93493230  0.21934214    -0.21500
C3386       C  0.83979284  0.94015785  0.23265131    -0.21500
C3387       C  0.68326324  0.47117500  0.15093688    -0.21500
C3388       C  0.65646725  0.48254836  0.16561229    -0.21500
C3389       C  0.89392822  0.43941323  0.15491593    -0.22500
C3390       C  0.85910350  0.44632346  0.14222023    -0.22500
C3391       C  0.66743595  0.99508987  0.23367723    -0.22500
C3392       C  0.63792960  0.01681570  0.22144551    -0.22500
C3393       C  0.89085068  0.46129514  0.18614018    -0.17900
C3394       C  0.75476911  0.97121338  0.23460396    -0.17900
C3395       C  0.67527408  0.52810001  0.19243040    -0.17900
C3396       C  0.77098763  0.47270202  0.14371364    -0.17900
H3397       H  0.91157504  0.92801451  0.22060685     0.15000
H3398       H  0.84709036  0.93628404  0.24626371     0.15000
H3399       H  0.66956232  0.45685283  0.13894723     0.15000
H3400       H  0.61739383  0.48074766  0.16694670     0.15000
H3401       H  0.93286169  0.43728254  0.15281442     0.13300
H3402       H  0.86615955  0.44919924  0.12852063     0.13300
H3403       H  0.65580157  0.97819157  0.24551131     0.13300
H3404       H  0.59883058  0.01697587  0.22145957     0.13300
H3405       H  0.79903632  0.44427705  0.19820734     0.26600
H3406       H  0.76393329  0.51430559  0.17677688     0.26600
N3407       N  0.74721896  0.69301165  0.21016615    -0.36200
N3408       N  0.65383073  0.74097300  0.21099493    -0.56700
N3409       N  0.66046446  0.75608657  0.17370855    -0.36200
N3410       N  0.75284705  0.70721512  0.17223030    -0.56700
C3411       C  0.73812526  0.69224467  0.22747246     0.27400
C3412       C  0.79605374  0.69007295  0.20787078     0.27400
C3413       C  0.62978287  0.79216189  0.17908672     0.27400
C3414       C  0.67472503  0.76770395  0.15766865     0.27400
C3415       C  0.65085023  0.71592161  0.22583758     0.36000
C3416       C  0.60811157  0.75434214  0.20647924     0.36000
C3417       C  0.80070586  0.70826780  0.17577688     0.36000
C3418       C  0.74792461  0.71672644  0.15512209     0.36000
C3419       C  0.78158595  0.68432655  0.23618176    -0.21500
C3420       C  0.81794408  0.68264397  0.22389376    -0.21500
C3421       C  0.62643336  0.82823136  0.16664308    -0.21500
C3422       C  0.65384539  0.81202597  0.15283331    -0.21500
C3423       C  0.60270481  0.71277123  0.23081807    -0.22500
C3424       C  0.57537546  0.73624309  0.21827464    -0.22500
C3425       C  0.82525806  0.71989961  0.16070291    -0.22500
C3426       C  0.79269182  0.72143469  0.14752269    -0.22500
C3427       C  0.69179134  0.70064430  0.23555645    -0.17900
C3428       C  0.82189968  0.70270124  0.19251055    -0.17900
C3429       C  0.70649783  0.73880106  0.14760750    -0.17900
C3430       C  0.59777998  0.78786694  0.19309351    -0.17900
H3431       H  0.78692155  0.68225900  0.24999398     0.15000
H3432       H  0.85653511  0.67956839  0.22659199     0.15000
H3433       H  0.60412929  0.86137442  0.16703625     0.15000
H3434       H  0.65790388  0.83120120  0.14080757     0.15000
H3435       H  0.58903034  0.69626799  0.24242615     0.13300
H3436       H  0.53619811  0.74096551  0.21822357     0.13300
H3437       H  0.86153194  0.73160534  0.15910659     0.13300
H3438       H  0.80027166  0.73410093  0.13460128     0.13300
H3439       H  0.72160632  0.69654324  0.20043835     0.26600
H3440       H  0.66547541  0.72208980  0.17941707     0.26600
O3441       O  0.59522673  0.94292198  0.95094132    -0.72500
O3442       O  0.94804467  0.94052329  0.94952125    -0.73500
O3443       O  0.02695374  0.93105012  0.92453538    -0.62100
O3444       O  0.02036815  0.94855494  0.97536563    -0.70500
O3445       O  0.02871724  0.57840679  0.97414470    -0.70100
O3446       O  0.03423750  0.57180212  0.92187544    -0.61300
O3447       O  0.95712695  0.57961695  0.94753689    -0.73800
O3448       O  0.60333246  0.57043476  0.94653628    -0.72600
Cu3449     Cu  0.02345626  0.93894625  0.95002058     1.04600
Cu3450     Cu  0.03112729  0.57949954  0.94796289     1.04300
C3451       C  0.62987361  0.53221122  0.94885475     0.93700
C3452       C  0.93403570  0.54045629  0.94848819     0.92800
C3453       C  0.03653249  0.52960800  0.91486358     0.85000
C3454       C  0.02889071  0.53862128  0.98268314     0.91200
O3455       O  0.93807221  0.76294409  0.92505638    -0.72500
O3456       O  0.93910459  0.77268401  0.97784592    -0.73500
O3457       O  0.51173626  0.77148273  0.95035740    -0.62100
O3458       O  0.86461637  0.77094111  0.95180172    -0.70500
O3459       O  0.86601551  0.69083523  0.95343035    -0.70100
O3460       O  0.51670056  0.69133955  0.95181039    -0.61300
O3461       O  0.94134861  0.69239049  0.97903626    -0.73800
O3462       O  0.94042150  0.68308627  0.92759275    -0.72600
Cu3463     Cu  0.93849019  0.77164085  0.95139844     1.04600
Cu3464     Cu  0.94085656  0.68606984  0.95329732     1.04300
C3465       C  0.93943856  0.72068396  0.91806096     0.93700
C3466       C  0.94034777  0.73337160  0.98667051     0.92800
C3467       C  0.53763372  0.73211461  0.95124145     0.85000
C3468       C  0.84185975  0.73151809  0.95263381     0.91200
O3469       O  0.77379942  0.94334200  0.92378514    -0.72500
O3470       O  0.76976515  0.94763840  0.97619907    -0.73500
O3471       O  0.69744136  0.94329268  0.94974984    -0.62100
O3472       O  0.84564067  0.94224706  0.95009148    -0.70500
O3473       O  0.85446309  0.58246792  0.94953519    -0.70100
O3474       O  0.70395050  0.57746018  0.94952355    -0.61300
O3475       O  0.77848129  0.58100991  0.97534149    -0.73800
O3476       O  0.77946489  0.58689008  0.92416518    -0.72600
Cu3477     Cu  0.77161958  0.94124347  0.95002631     1.04600
Cu3478     Cu  0.77883867  0.58469366  0.94967795     1.04300
C3479       C  0.78392553  0.54948334  0.91458864     0.93700
C3480       C  0.78012121  0.54033380  0.98297532     0.92800
C3481       C  0.68411228  0.53595311  0.94872460     0.85000
C3482       C  0.87955061  0.54214597  0.94872666     0.91200
O3483       O  0.68922153  0.78470912  0.92826590    -0.72500
O3484       O  0.68751981  0.76729232  0.97901738    -0.73500
O3485       O  0.76305611  0.77350811  0.95394973    -0.62100
O3486       O  0.61331625  0.77403474  0.95314166    -0.70500
O3487       O  0.61744727  0.69412707  0.95035195    -0.70100
O3488       O  0.76499103  0.69370685  0.95076715    -0.61300
O3489       O  0.69112789  0.68711669  0.97684375    -0.73800
O3490       O  0.69140765  0.70525725  0.92422530    -0.72600
Cu3491     Cu  0.68811867  0.77749944  0.95373102     1.04600
Cu3492     Cu  0.69129169  0.69219990  0.95040164     1.04300
C3493       C  0.69059931  0.74847985  0.91805277     0.93700
C3494       C  0.68968597  0.72573371  0.98611103     0.92800
C3495       C  0.78746873  0.73306915  0.95249229     0.85000
C3496       C  0.59194838  0.73364878  0.95159974     0.91200
O3497       O  0.96514309  0.58362778  0.53751803    -0.72500
O3498       O  0.96582469  0.93539468  0.53696819    -0.73500
O3499       O  0.97451069  0.00507499  0.56396863    -0.62100
O3500       O  0.96344165  0.01291769  0.51139946    -0.70500
O3501       O  0.53682233  0.99052469  0.50908717    -0.70100
O3502       O  0.54827373  0.98505636  0.56010590    -0.61300
O3503       O  0.54008385  0.91264796  0.53446671    -0.73800
O3504       O  0.53831002  0.56188881  0.53679153    -0.72600
Cu3505     Cu  0.96440300  0.00917428  0.53776695     1.04600
Cu3506     Cu  0.54342201  0.98782875  0.53464305     1.04300
C3507       C  0.00483567  0.60546360  0.53540237     0.93700
C3508       C  0.00543817  0.90975502  0.53621285     0.92800
C3509       C  0.51184739  0.98138798  0.57011579     0.85000
C3510       C  0.00276096  0.01370073  0.50241506     0.91200
O3511       O  0.53653201  0.66354822  0.53638770    -0.72500
O3512       O  0.53717521  0.81103716  0.53802895    -0.73500
O3513       O  0.52888888  0.73292645  0.56366271    -0.62100
O3514       O  0.53777503  0.74146481  0.51081184    -0.70500
O3515       O  0.96483514  0.76324801  0.50976538    -0.70100
O3516       O  0.95528244  0.75503259  0.56051927    -0.61300
O3517       O  0.96291117  0.83414162  0.53611534    -0.73800
O3518       O  0.96312237  0.68446193  0.53425401    -0.72600
Cu3519     Cu  0.53808868  0.73718322  0.53727534     1.04600
Cu3520     Cu  0.95895408  0.75944633  0.53511686     1.04300
C3521       C  0.00376960  0.65983619  0.53489623     0.93700
C3522       C  0.00369540  0.85534464  0.53701715     0.92800
C3523       C  0.48576211  0.73272335  0.57010811     0.85000
C3524       C  0.00563633  0.76507343  0.50212332     0.91200
O3525       O  0.78428556  0.49822000  0.56297310    -0.72500
O3526       O  0.78247148  0.49173780  0.51147932    -0.73500
O3527       O  0.78219156  0.56895986  0.53693178    -0.62100
O3528       O  0.79541139  0.91854929  0.53715921    -0.70500
O3529       O  0.71578326  0.92316312  0.54148203    -0.70100
O3530       O  0.70166610  0.57168614  0.53682262    -0.61300
O3531       O  0.70180851  0.49390272  0.51093013    -0.73800
O3532       O  0.70366656  0.50005788  0.56331902    -0.72600
Cu3533     Cu  0.78590152  0.49469248  0.53726653     1.04600
Cu3534     Cu  0.69982373  0.49696366  0.53720562     1.04300
C3535       C  0.74426779  0.50218795  0.57129766     0.93700
C3536       C  0.74468846  0.99062503  0.50494794     0.92800
C3537       C  0.74184969  0.59380394  0.53738244     0.85000
C3538       C  0.75488697  0.89744718  0.53909210     0.91200
O3539       O  0.78285052  0.66883011  0.54090780    -0.72500
O3540       O  0.79144152  0.81645583  0.53950313    -0.73500
O3541       O  0.77640773  0.74824845  0.56656770    -0.62100
O3542       O  0.79528993  0.73813746  0.51417269    -0.70500
O3543       O  0.71498101  0.74596190  0.51202925    -0.70100
O3544       O  0.69666631  0.75254523  0.56268443    -0.61300
O3545       O  0.71126722  0.82322753  0.53719037    -0.73800
O3546       O  0.70299139  0.67447177  0.53745807    -0.72600
Cu3547     Cu  0.78936340  0.74249946  0.54047311     1.04600
Cu3548     Cu  0.70391231  0.74920642  0.53723233     1.04300
C3549       C  0.74236203  0.64820300  0.53866755     0.93700
C3550       C  0.75252363  0.84322065  0.53853193     0.92800
C3551       C  0.73317613  0.75442546  0.57271319     0.85000
C3552       C  0.75666390  0.73967785  0.50496959     0.91200
C3553       C  0.68351857  0.69668200  0.10217659    -0.20900
C3554       C  0.69516093  0.73723270  0.09231416    -0.08900
C3555       C  0.71082993  0.77912198  0.10081601     0.29900
C3556       C  0.71512377  0.77982241  0.11879971    -0.20900
C3557       C  0.70238584  0.73949714  0.12855693    -0.08900
C3558       C  0.68704653  0.69786511  0.12012232     0.29900
F3559       F  0.67587587  0.65813135  0.12933031    -0.19500
H3560       H  0.67158783  0.66396661  0.09600225     0.18300
H3561       H  0.72891031  0.81154974  0.12509156     0.18300
F3562       F  0.72333323  0.81885511  0.09178739    -0.19400
C3563       C  0.75834775  0.54510632  0.10177746    -0.20900
C3564       C  0.77006220  0.50953529  0.08924545    -0.08900
C3565       C  0.76688865  0.94102579  0.09849439     0.29900
C3566       C  0.76029635  0.93532973  0.11626623    -0.20900
C3567       C  0.76686522  0.48485160  0.12493853    -0.08900
C3568       C  0.75671335  0.53294696  0.11944567     0.29900
F3569       F  0.74710225  0.56854029  0.13122574    -0.19500
H3570       H  0.75082054  0.58232666  0.09793876     0.18300
H3571       H  0.77055982  0.90085315  0.12212262     0.18300
F3572       F  0.78713071  0.90316752  0.08944265    -0.19400
C3573       C  0.99425165  0.75793958  0.10030781    -0.20900
C3574       C  0.95374435  0.73507334  0.09357051    -0.08900
C3575       C  0.92083581  0.71467556  0.10510699     0.29900
C3576       C  0.92745359  0.71894214  0.12306204    -0.20900
C3577       C  0.96823179  0.74176813  0.12998443    -0.08900
C3578       C  0.00192055  0.76072410  0.11819170     0.29900
F3579       F  0.04245473  0.78223477  0.12389982    -0.19500
H3580       H  0.02039258  0.77345136  0.09163194     0.18300
H3581       H  0.38406039  0.72498804  0.12970110     0.18300
F3582       F  0.36386922  0.71719524  0.09701494    -0.19400
C3583       C  0.51850911  0.51264111  0.09918479    -0.20900
C3584       C  0.02788264  0.55680979  0.08837503    -0.08900
C3585       C  0.03447747  0.60317470  0.09566361     0.29900
C3586       C  0.03209495  0.60996474  0.11351056    -0.20900
C3587       C  0.02400829  0.57081105  0.12442494    -0.08900
C3588       C  0.51861907  0.51759244  0.11717482     0.29900
F3589       F  0.49114057  0.95910744  0.13082032    -0.19500
H3590       H  0.49700919  0.94809521  0.09758626     0.18300
H3591       H  0.03652301  0.64584295  0.11884681     0.18300
F3592       F  0.04348116  0.64210929  0.08563330    -0.19400
C3593       C  0.75476649  0.70633229  0.36980045    -0.20900
C3594       C  0.70603871  0.70429057  0.36448352    -0.08900
C3595       C  0.66886956  0.70752782  0.37676173     0.29900
C3596       C  0.68011791  0.71388874  0.39413365    -0.20900
C3597       C  0.72873555  0.71763052  0.39963639    -0.08900
C3598       C  0.76622833  0.71281199  0.38727737     0.29900
F3599       F  0.81361227  0.71475687  0.39197730    -0.19500
H3600       H  0.78381004  0.70411011  0.36031290     0.18300
H3601       H  0.65034489  0.71606932  0.40330257     0.18300
F3602       F  0.62169123  0.70530701  0.37186671    -0.19400
C3603       C  0.81020914  0.94258064  0.37349209    -0.20900
C3604       C  0.77366068  0.96026645  0.36235137    -0.08900
C3605       C  0.75944711  0.44051799  0.36844185     0.29900
C3606       C  0.74874638  0.45065278  0.38585857    -0.20900
C3607       C  0.76081511  0.96691643  0.39865750    -0.08900
C3608       C  0.80374081  0.94527191  0.39145875     0.29900
F3609       F  0.83950105  0.92643057  0.40177007    -0.19500
H3610       H  0.84415392  0.92758022  0.36829719     0.18300
H3611       H  0.71106506  0.45309476  0.38995271     0.18300
F3612       F  0.72222459  0.43629431  0.35714290    -0.19400
C3613       C  0.04373145  0.79440893  0.36873355    -0.20900
C3614       C  0.00088343  0.80969246  0.36034444    -0.08900
C3615       C  0.95778635  0.81617283  0.36999811     0.29900
C3616       C  0.95753144  0.80678150  0.38772767    -0.20900
C3617       C  0.00030733  0.79085611  0.39619909    -0.08900
C3618       C  0.04378520  0.78556974  0.38650470     0.29900
F3619       F  0.58865530  0.78824081  0.39797348    -0.19500
H3620       H  0.58527021  0.80309603  0.36502366     0.18300
H3621       H  0.92375707  0.81211140  0.39482173     0.18300
F3622       F  0.91569511  0.83095811  0.36216734    -0.19400
C3623       C  0.01137281  0.54896136  0.38474197    -0.20900
C3624       C  0.98152640  0.04683101  0.39685170    -0.08900
C3625       C  0.93426638  0.05046865  0.38957458     0.29900
C3626       C  0.92769787  0.06193679  0.37207406    -0.20900
C3627       C  0.96780695  0.07086281  0.36152574    -0.08900
C3628       C  0.00488809  0.55936096  0.36720911     0.29900
F3629       F  0.56193828  0.54480492  0.36051155    -0.19500
H3630       H  0.55996290  0.52583566  0.39315794     0.18300
H3631       H  0.89155399  0.06128523  0.36658521     0.18300
F3632       F  0.89420822  0.04183702  0.39919748    -0.19400
C3633       C  0.68148707  0.73270397  0.86916080    -0.20900
C3634       C  0.69273658  0.77912500  0.86317435    -0.08900
C3635       C  0.70243273  0.81523680  0.87532424     0.29900
C3636       C  0.70175574  0.80477447  0.89303385    -0.20900
C3637       C  0.69141759  0.75803322  0.89908446    -0.08900
C3638       C  0.68098694  0.72209317  0.88688238     0.29900
F3639       F  0.66947929  0.67699617  0.89202868    -0.19500
H3640       H  0.67347788  0.70435866  0.86000915     0.18300
H3641       H  0.70954531  0.83349872  0.90204713     0.18300
F3642       F  0.71200553  0.86074383  0.87005733    -0.19400
C3643       C  0.77479041  0.60335601  0.88877539    -0.20900
C3644       C  0.78711512  0.55713132  0.89559546    -0.08900
C3645       C  0.80413304  0.52044303  0.88420535     0.29900
C3646       C  0.80673533  0.52946828  0.86641507    -0.20900
C3647       C  0.79253071  0.57504723  0.85968296    -0.08900
C3648       C  0.77758720  0.61228839  0.87105095     0.29900
F3649       F  0.76443317  0.65685408  0.86492149    -0.19500
H3650       H  0.76231731  0.63274571  0.89716375     0.18300
H3651       H  0.81853635  0.50038025  0.85777737     0.18300
F3652       F  0.81847132  0.47605461  0.89019818    -0.19400
C3653       C  0.42961094  0.74916494  0.86831060    -0.20900
C3654       C  0.94428295  0.69769492  0.86269207    -0.08900
C3655       C  0.95098734  0.65883698  0.87418186     0.29900
C3656       C  0.94878485  0.66682854  0.89202918    -0.20900
C3657       C  0.94054792  0.71384661  0.89891048    -0.08900
C3658       C  0.42853015  0.75549213  0.88629448     0.29900
F3659       F  0.41363588  0.79927248  0.89280887    -0.19500
H3660       H  0.41949756  0.77970801  0.86014249     0.18300
H3661       H  0.95416690  0.63592001  0.90049020     0.18300
F3662       F  0.95973232  0.61312876  0.86815679    -0.19400
C3663       C  0.04736703  0.47199371  0.87035387    -0.20900
C3664       C  0.06048512  0.51146638  0.86030073    -0.08900
C3665       C  0.54997455  0.50471478  0.86613470     0.29900
C3666       C  0.54439959  0.52195270  0.88312321    -0.20900
C3667       C  0.04388438  0.52336390  0.89605800    -0.08900
C3668       C  0.03924858  0.47762787  0.88807451     0.29900
F3669       F  0.05449774  0.87022125  0.90130514    -0.19500
H3670       H  0.04264813  0.43694868  0.86439930     0.18300
H3671       H  0.54389574  0.56062316  0.88553127     0.18300
F3672       F  0.55325116  0.53718011  0.85308490    -0.19400
C3673       C  0.75121622  0.77881857  0.62084826    -0.20900
C3674       C  0.70437140  0.79578515  0.62585956    -0.08900
C3675       C  0.66773996  0.79928366  0.61333538     0.29900
C3676       C  0.67738625  0.78473066  0.59630809    -0.20900
C3677       C  0.72405812  0.76694228  0.59123354    -0.08900
C3678       C  0.76110385  0.76463464  0.60373250     0.29900
F3679       F  0.80657193  0.74796702  0.59954506    -0.19500
H3680       H  0.77997411  0.77543907  0.63035533     0.18300
H3681       H  0.64809302  0.78798294  0.58701632     0.18300
F3682       F  0.62250123  0.81644291  0.61758784    -0.19400
C3683       C  0.70509017  0.50022612  0.60046102    -0.20900
C3684       C  0.74513945  0.51144166  0.59015262    -0.08900
C3685       C  0.83484450  0.00984678  0.59632204     0.29900
C3686       C  0.84675543  0.01677352  0.61365976    -0.20900
C3687       C  0.74443635  0.53313834  0.62578320    -0.08900
C3688       C  0.70503787  0.51035465  0.61815433     0.29900
F3689       F  0.66692152  0.49706907  0.62797353    -0.19500
H3690       H  0.67409840  0.48296461  0.59487066     0.18300
H3691       H  0.88458115  0.01815164  0.61739191     0.18300
F3692       F  0.87185568  0.00633163  0.58471056    -0.19400
C3693       C  0.92690011  0.72131399  0.61245799    -0.20900
C3694       C  0.45532240  0.70287770  0.62365074    -0.08900
C3695       C  0.50376703  0.70625679  0.61798656     0.29900
C3696       C  0.51406123  0.71621158  0.60061821    -0.20900
C3697       C  0.47606516  0.72312811  0.58868946    -0.08900
C3698       C  0.93579131  0.73563347  0.59544133     0.29900
F3699       F  0.89720190  0.75104973  0.58577555    -0.19500
H3700       H  0.89019438  0.72420951  0.61755352     0.18300
H3701       H  0.55155829  0.71908362  0.59657562     0.18300
F3702       F  0.54088409  0.70181326  0.62943158    -0.19400
C3703       C  0.55677104  0.45198558  0.59643999    -0.20900
C3704       C  0.52182741  0.97099610  0.58872898    -0.08900
C3705       C  0.99605827  0.00977600  0.60182329     0.29900
C3706       C  0.00570618  0.99894087  0.61915869    -0.20900
C3707       C  0.54486378  0.94789478  0.62353988    -0.08900
C3708       C  0.56388773  0.44175480  0.61399475     0.29900
F3709       F  0.60634231  0.41995464  0.61921070    -0.19500
H3710       H  0.58558900  0.44180786  0.58742951     0.18300
H3711       H  0.98173343  0.01464275  0.62896008     0.18300
F3712       F  0.95902237  0.04159222  0.59784964    -0.19400
loop_ 
_geom_bond_atom_site_label_1 
_geom_bond_atom_site_label_2 
_geom_bond_distance 
_geom_bond_site_symmetry_2 
_ccdc_geom_bond_type 
N1            C6   1.348       .  A
N1            C5   1.344   1_565  A
N1           H33   1.045       .  S
N2            C9   1.340   1_565  A
N2           C10   1.348   1_565  A
N3            C8   1.348       .  A
N3            C7   1.362       .  A
N3           H34   1.041       .  S
N4           C11   1.354       .  A
N4           C12   1.348       .  A
C5           C13   1.383       .  A
C5         C1877   1.402       .  A
C6           C22   1.404       .  A
C6           C14   1.388   1_565  A
C7           C15   1.383       .  A
C7           C24   1.421       .  A
C8           C16   1.390       .  A
C8         C1879   1.424       .  A
C9           C21   1.401   1_455  A
C9           C17   1.384       .  A
C10          C18   1.386       .  A
C10         C952   1.406   1_545  A
C11          C19   1.376       .  A
C11         C950   1.412       .  A
C12          C20   1.384       .  A
C12          C23   1.412       .  A
C13          C14   1.383       .  A
C13          H25   1.082       .  S
C14          H26   1.079   1_545  S
C15          C16   1.381       .  A
C15          H27   1.081       .  S
C16          H28   1.082       .  S
C17          C18   1.372       .  A
C17          H29   1.081       .  S
C18          H30   1.082       .  S
C19          C20   1.368       .  A
C19          H31   1.078       .  S
C20          H32   1.082       .  S
C21        C1861   1.410   1_655  A
C21        C1911   1.509       .  S
C22         C939   1.402       .  A
C22         C158   1.488       .  S
C23        C1864   1.429       .  A
C23          C57   1.528       .  S
C24         C938   1.411       .  A
C24         C923   1.490       .  S
N35          C40   1.347       .  A
N35          C39   1.348       .  A
N35          H67   1.045       .  S
N36          C43   1.344       .  A
N36          C44   1.347       .  A
N37          C42   1.347       .  A
N37          C41   1.355       .  A
N37        H1924   1.041       .  S
N38          C45   1.356       .  A
N38          C46   1.352       .  A
C39          C47   1.382       .  A
C39          C55   1.406       .  A
C40          C56   1.392       .  A
C40          C48   1.387       .  A
C41          C49   1.387       .  A
C41          C58   1.414       .  A
C42          C50   1.387       .  A
C42        C1913   1.411       .  A
C43          C51   1.389       .  A
C43        C1911   1.416       .  A
C44          C58   1.410       .  A
C44          C52   1.385       .  A
C45          C53   1.385       .  A
C45          C56   1.416       .  A
C46          C54   1.389       .  A
C46          C57   1.423       .  A
C47          C48   1.371       .  A
C47          H59   1.083       .  S
C48          H60   1.077       .  S
C49          C50   1.377       .  A
C49          H61   1.081       .  S
C50          H62   1.083       .  S
C51          C52   1.381       .  A
C51          H63   1.082       .  S
C52          H64   1.082       .  S
C53          C54   1.379       .  A
C53          H65   1.082       .  S
C54          H66   1.081       .  S
C55        C1899   1.413       .  A
C55        C1877   1.516       .  S
C56         C191   1.499       .  S
C57        C1898   1.400       .  A
C58         C910   1.488       .  S
H68        N1893   1.043       .  S
N69          C74   1.344       .  A
N69          C73   1.355       .  A
N69         H101   1.042       .  S
N70          C77   1.347       .  A
N70          C78   1.343       .  A
N71          C76   1.352       .  A
N71          C75   1.345       .  A
N71         H102   1.035       .  S
N72          C79   1.346       .  A
N72          C80   1.353       .  A
C73          C81   1.384       .  A
C73          C89   1.413       .  A
C74          C90   1.407       .  A
C74          C82   1.385       .  A
C75          C83   1.388       .  A
C75          C92   1.415       .  A
C76          C84   1.389       .  A
C76        C1019   1.421       .  A
C77          C85   1.388       .  A
C77        C1017   1.419       .  A
C78          C92   1.418       .  A
C78          C86   1.388       .  A
C79          C87   1.387       .  A
C79          C90   1.415       .  A
C80          C88   1.380       .  A
C80          C91   1.410       .  A
C81          C82   1.371       .  A
C81          H93   1.075       .  S
C82          H94   1.081       .  S
C83          C84   1.379       .  A
C83          H95   1.083       .  S
C84          H96   1.081       .  S
C85          C86   1.387       .  A
C85          H97   1.081       .  S
C86          H98   1.082       .  S
C87          C88   1.377       .  A
C87          H99   1.079       .  S
C88         H100   1.083       .  S
C89        C1005   1.425       .  A
C89         C226   1.511       .  S
C90         C124   1.528       .  S
C91        C1004   1.417   1_545  A
C91         C903   1.491       .  S
C92         C126   1.534       .  S
N103        C108   1.349       .  A
N103        C107   1.356       .  A
N103        H135   1.039       .  S
N104        C111   1.352       .  A
N104        C112   1.347       .  A
N105        C110   1.362       .  A
N105        C109   1.349       .  A
N105        H136   1.044       .  S
N106        C113   1.340       .  A
N106        C114   1.343       .  A
C107        C115   1.388       .  A
C107        C123   1.423       .  A
C108        C124   1.417       .  A
C108        C116   1.387       .  A
C109        C117   1.390       .  A
C109        C126   1.423       .  A
C110        C125   1.416       .  A
C110        C118   1.381       .  A
C111        C123   1.413       .  A
C111        C119   1.379       .  A
C112        C126   1.414       .  A
C112        C120   1.388       .  A
C113        C121   1.384       .  A
C113        C124   1.398       .  A
C114        C122   1.384       .  A
C114        C125   1.406       .  A
C115        C116   1.381       .  A
C115        H127   1.081       .  S
C116        H128   1.082       .  S
C117        C118   1.383       .  A
C117        H129   1.082       .  S
C118        H130   1.082       .  S
C119        C120   1.376       .  A
C119        H131   1.080       .  S
C120        H132   1.081       .  S
C121        C122   1.373       .  A
C121        H133   1.080       .  S
C122        H134   1.081       .  S
C123        C259   1.508       .  S
C125        C890   1.501       .  S
N137        C142   1.354       .  A
N137        C141   1.343       .  A
N137        H169   1.044       .  S
N138        C145   1.344       .  A
N138        C146   1.352       .  A
N139        C144   1.346       .  A
N139        C143   1.352       .  A
N139        H170   1.034       .  S
N140        C147   1.342       .  A
N140        C148   1.340       .  A
C141        C149   1.386       .  A
C141        C157   1.406   1_565  A
C142        C150   1.379       .  A
C142       C2014   1.403       .  A
C143        C151   1.390       .  A
C143        C160   1.421       .  A
C144        C159   1.416       .  A
C144        C152   1.386       .  A
C145        C157   1.413   1_565  A
C145        C153   1.387       .  A
C146        C154   1.380       .  A
C146       C2016   1.408       .  A
C147        C155   1.388       .  A
C147        C158   1.407       .  A
C148        C156   1.387       .  A
C148        C159   1.405       .  A
C149        C150   1.375       .  A
C149        H161   1.081       .  S
C150        H162   1.078       .  S
C151        C152   1.378       .  A
C151        H163   1.080       .  S
C152        H164   1.083       .  S
C153        C154   1.377       .  A
C153        H165   1.080       .  S
C154        H166   1.082       .  S
C155        C156   1.378       .  A
C155        H167   1.081       .  S
C156        H168   1.082       .  S
C157        C225   1.528       .  S
C158       C1998   1.402       .  A
C159        C227   1.522       .  S
C160       C2002   1.411       .  A
C160        C880   1.495       .  S
N171        C176   1.341   1_655  A
N171        C175   1.352       .  A
N171        H203   1.034       .  S
N172        C179   1.352       .  A
N172        C180   1.347       .  A
N173        C178   1.356       .  A
N173        C177   1.349       .  A
N173        H204   1.043       .  S
N174        C181   1.343   1_655  A
N174        C182   1.346       .  A
C175        C183   1.386   1_655  A
C175       C2047   1.414       .  A
C176        C192   1.411       .  A
C176        C184   1.388       .  A
C177        C185   1.389       .  A
C177        C194   1.417       .  A
C178        C193   1.413       .  A
C178        C186   1.382       .  A
C179        C191   1.408       .  A
C179        C187   1.372       .  A
C180        C194   1.409       .  A
C180        C188   1.384       .  A
C181        C189   1.384       .  A
C181        C192   1.410       .  A
C182        C190   1.386   1_655  A
C182       C2049   1.410       .  A
C183        C184   1.379       .  A
C183        H195   1.082       .  S
C184        H196   1.079       .  S
C185        C186   1.377       .  A
C185        H197   1.082       .  S
C186        H198   1.081       .  S
C187        C188   1.369       .  A
C187        H199   1.070       .  S
C188        H200   1.082       .  S
C189        C190   1.375       .  A
C189        H201   1.078       .  S
C190        H202   1.081       .  S
C191       C2031   1.419       .  A
C192        C260   1.519       .  S
C193       C2038   1.410       .  A
C193        C870   1.493       .  S
C194        C262   1.531       .  S
N205        C210   1.357       .  A
N205        C209   1.347       .  A
N205        H237   1.038       .  S
N206        C213   1.341       .  A
N206        C214   1.347       .  A
N207        C212   1.344       .  A
N207        C211   1.354       .  A
N207        H238   1.044       .  S
N208        C215   1.350       .  A
N208        C216   1.343       .  A
C209        C217   1.388       .  A
C209        C225   1.418       .  A
C210        C226   1.426       .  A
C210        C218   1.388       .  A
C211        C219   1.381       .  A
C211        C228   1.405       .  A
C212        C227   1.407   1_545  A
C212        C220   1.388       .  A
C213        C225   1.406       .  A
C213        C221   1.388       .  A
C214        C228   1.408       .  A
C214        C222   1.384       .  A
C215        C223   1.380       .  A
C215        C226   1.409       .  A
C216        C224   1.386       .  A
C216        C227   1.409   1_545  A
C217        C218   1.381       .  A
C217        H229   1.082       .  S
C218        H230   1.080       .  S
C219        C220   1.377       .  A
C219        H231   1.081       .  S
C220        H232   1.082       .  S
C221        C222   1.377       .  A
C221        H233   1.080       .  S
C222        H234   1.082       .  S
C223        C224   1.373       .  A
C223        H235   1.075       .  S
C224        H236   1.081       .  S
C228        C863   1.489       .  S
N239        C244   1.344       .  A
N239        C243   1.355       .  A
N239        H271   1.043       .  S
N240        C247   1.347       .  A
N240        C248   1.343       .  A
N241        C246   1.352       .  A
N241        C245   1.346       .  A
N241        H272   1.032       .  S
N242        C249   1.340       .  A
N242        C250   1.343       .  A
C243        C251   1.385       .  A
C243        C259   1.415       .  A
C244        C260   1.407       .  A
C244        C252   1.385       .  A
C245        C253   1.389       .  A
C245        C262   1.420       .  A
C246        C261   1.419       .  A
C246        C254   1.388       .  A
C247        C259   1.422       .  A
C247        C255   1.389       .  A
C248        C262   1.419       .  A
C248        C256   1.387       .  A
C249        C257   1.387       .  A
C249        C260   1.404       .  A
C250        C258   1.386       .  A
C250        C261   1.408       .  A
C251        C252   1.376       .  A
C251        H263   1.076       .  S
C252        H264   1.082       .  S
C253        C254   1.381       .  A
C253        H265   1.083       .  S
C254        H266   1.082       .  S
C255        C256   1.383       .  A
C255        H267   1.081       .  S
C256        H268   1.083       .  S
C257        C258   1.376       .  A
C257        H269   1.082       .  S
C258        H270   1.082       .  S
C261        C850   1.481       .  S
N273        C278   1.366       .  A
N273        C277   1.348       .  A
N273        H305   1.037       .  S
N274        C281   1.346       .  A
N274        C282   1.358       .  A
N275        C280   1.348       .  A
N275        C279   1.354       .  A
N275        H306   1.044       .  S
N276        C283   1.355       .  A
N276        C284   1.350       .  A
C277        C285   1.387       .  A
C277        C293   1.419       .  A
C278        C286   1.381       .  A
C278       C1222   1.433       .  A
C279        C287   1.372       .  A
C279        C296   1.385       .  A
C280        C295   1.418       .  A
C280        C288   1.397       .  A
C281        C293   1.415       .  A
C281        C289   1.395       .  A
C282        C290   1.379       .  A
C282       C1224   1.403       .  A
C283        C291   1.378       .  A
C283        C294   1.407       .  A
C284        C292   1.392       .  A
C284        C295   1.416       .  A
C285        C286   1.377       .  A
C285        H297   1.076       .  S
C286        H298   1.080       .  S
C287        C288   1.355       .  A
C287        H299   1.083       .  S
C288        H300   1.075       .  S
C289        C290   1.379       .  A
C289        H301   1.083       .  S
C290        H302   1.082       .  S
C291        C292   1.369       .  A
C291        H303   1.079       .  S
C292        H304   1.079       .  S
C293        C330   1.490       .  S
C294       C1206   1.392       .  A
C294        C541   1.498       .  S
C295        C328   1.490       .  S
C296       C1210   1.403       .  A
C296        C843   1.490       .  S
N307        C312   1.349       .  A
N307        C311   1.361       .  A
N307        H339   1.045       .  S
N308        C315   1.346       .  A
N308        C316   1.337       .  A
N309        C314   1.351       .  A
N309        C313   1.348       .  A
N309        H340   1.046       .  S
N310        C317   1.345       .  A
N310        C318   1.357       .  A
C311        C319   1.372       .  A
C311        C327   1.394       .  A
C312        C328   1.420       .  A
C312        C320   1.394       .  A
C313        C321   1.393       .  A
C313        C330   1.420       .  A
C314        C329   1.391       .  A
C314        C322   1.373       .  A
C315        C327   1.401       .  A
C315        C323   1.387       .  A
C316        C330   1.392       .  A
C316        C324   1.382       .  A
C317        C325   1.394       .  A
C317        C328   1.416       .  A
C318        C326   1.381       .  A
C318        C329   1.411       .  A
C319        C320   1.353       .  A
C319        H331   1.067       .  S
C320        H332   1.080       .  S
C321        C322   1.369       .  A
C321        H333   1.074       .  S
C322        H334   1.083       .  S
C323        C324   1.377       .  A
C323        H335   1.072       .  S
C324        H336   1.083       .  S
C325        C326   1.379       .  A
C325        H337   1.083       .  S
C326        H338   1.079       .  S
C327        C575   1.522       .  S
C329        C830   1.507       .  S
N341        C346   1.341   1_565  A
N341        C345   1.353       .  A
N341        H373   1.038       .  S
N342        C349   1.352       .  A
N342        C350   1.345       .  A
N343        C348   1.359       .  A
N343        C347   1.352       .  A
N343        H374   1.044       .  S
N344        C351   1.345   1_565  A
N344        C352   1.345       .  A
C345        C353   1.385   1_565  A
C345       C1289   1.419       .  A
C346        C362   1.401       .  A
C346        C354   1.380       .  A
C347        C355   1.392       .  A
C347        C364   1.425       .  A
C348        C363   1.418       .  A
C348        C356   1.382       .  A
C349        C361   1.415       .  A
C349        C357   1.382       .  A
C350        C364   1.421       .  A
C350        C358   1.393       .  A
C351        C359   1.386       .  A
C351        C362   1.409       .  A
C352        C360   1.385   1_565  A
C352       C1291   1.407       .  A
C353        C354   1.381       .  A
C353        H365   1.073       .  S
C354        H366   1.077       .  S
C355        C356   1.386       .  A
C355        H367   1.083       .  S
C356        H368   1.082       .  S
C357        C358   1.377       .  A
C357        H369   1.081       .  S
C358        H370   1.081       .  S
C359        C360   1.377       .  A
C359        H371   1.081       .  S
C360        H372   1.082       .  S
C361       C1273   1.426       .  A
C361        C610   1.513       .  S
C362        C397   1.529       .  S
C363       C1280   1.410       .  A
C363        C820   1.502       .  S
C364        C395   1.512       .  S
N375        C380   1.346       .  A
N375        C379   1.350       .  A
N375        H407   1.045       .  S
N376        C383   1.343       .  A
N376        C384   1.338       .  A
N377        C382   1.348       .  A
N377        C381   1.357       .  A
N377        H408   1.044       .  S
N378        C385   1.358       .  A
N378        C386   1.348       .  A
C379        C387   1.387       .  A
C379        C395   1.408       .  A
C380        C396   1.390       .  A
C380        C388   1.387       .  A
C381        C389   1.382       .  A
C381        C398   1.407       .  A
C382        C397   1.413       .  A
C382        C390   1.389       .  A
C383        C395   1.410       .  A
C383        C391   1.387       .  A
C384        C398   1.400       .  A
C384        C392   1.384       .  A
C385        C393   1.374       .  A
C385        C396   1.404       .  A
C386        C394   1.384       .  A
C386        C397   1.418       .  A
C387        C388   1.369       .  A
C387        H399   1.083       .  S
C388        H400   1.082       .  S
C389        C390   1.377       .  A
C389        H401   1.082       .  S
C390        H402   1.083       .  S
C391        C392   1.379       .  A
C391        H403   1.080       .  S
C392        H404   1.082       .  S
C393        C394   1.363       .  A
C393        H405   1.073       .  S
C394        H406   1.073       .  S
C396        C643   1.510       .  S
C398        C810   1.476       .  S
O409       Cu417   2.042       .  S
O409       C2275   1.284   1_455  A
O410       Cu417   2.030       .  S
O410       C2276   1.284   1_455  A
O411       Cu417   2.032       .  S
O411       C2277   1.278   1_455  A
O412      Cu1345   2.040       .  S
O412       C2278   1.279   1_455  A
O413      Cu1346   2.087       .  S
O413        C422   1.290       .  A
O414       Cu418   2.068       .  S
O414        C421   1.287       .  A
O415       Cu418   1.997       .  S
O415        C420   1.273       .  A
O416       Cu418   1.987       .  S
O416        C419   1.273       .  A
Cu417      O1340   2.030       .  S
Cu417     Cu2274   2.366   1_455  S
Cu418      O1341   2.073       .  S
Cu418     Cu2273   2.366       .  S
C419        C840   1.489       .  S
C419       O2265   1.283       .  A
C420        C726   1.472       .  S
C420       O2266   1.283       .  A
C421        C436   1.502       .  S
C421       O2267   1.279       .  A
C422        C435   1.505       .  S
C422       O2268   1.275       .  A
O423       Cu431   2.047       .  S
O423        C433   1.286       .  A
O424       Cu431   2.061       .  S
O424        C434   1.287       .  A
O425       Cu431   2.038       .  S
O425        C435   1.277       .  A
O426       Cu431   2.033       .  S
O426        C436   1.277       .  A
O427       Cu432   2.074       .  S
O427       C2292   1.288   1_455  A
O428       Cu432   2.069       .  S
O428       C2291   1.287   1_455  A
O429       Cu432   1.987       .  S
O429       C2290   1.273   1_455  A
O430       Cu432   1.999       .  S
O430       C2289   1.272   1_455  A
Cu431     Cu2288   2.365       .  S
Cu432     Cu2287   2.366   1_455  S
C433        C740   1.479       .  S
C433       O2286   1.272       .  A
C434        C833   1.502       .  S
C434       O2285   1.274       .  A
C435       O2284   1.289       .  A
C436       O2283   1.288       .  A
O437       Cu445   1.983       .  S
O437        C447   1.276       .  A
O438       Cu445   1.992       .  S
O438        C448   1.274       .  A
O439      Cu1373   2.063   1_545  S
O439        C449   1.285       .  A
O440       Cu445   2.058       .  S
O440        C450   1.284       .  A
O441       Cu446   2.057       .  S
O441        C450   1.282       .  A
O442      Cu1374   2.050   1_545  S
O442        C449   1.281       .  A
O443       Cu446   2.085       .  S
O443        C448   1.289       .  A
O444       Cu446   2.075       .  S
O444        C447   1.284       .  A
Cu445      O1367   2.055       .  S
Cu445      Cu446   2.361       .  S
Cu446      O1370   2.054       .  S
C447        C752   1.486       .  S
C448        C823   1.508       .  S
C449        C463   1.506       .  S
C450        C464   1.505       .  S
O451       Cu459   2.045       .  S
O451        C461   1.283       .  A
O452       Cu459   2.048       .  S
O452        C462   1.282       .  A
O453       Cu459   2.047       .  S
O453        C463   1.280       .  A
O454       Cu459   2.044       .  S
O454        C464   1.281       .  A
O455       Cu460   2.068       .  S
O455        C464   1.285       .  A
O456       Cu460   2.070       .  S
O456        C463   1.286       .  A
O457       Cu460   1.990       .  S
O457        C462   1.275       .  A
O458       Cu460   1.974       .  S
O458        C461   1.273       .  A
Cu459      Cu460   2.365       .  S
C461        C813   1.486       .  S
C462        C768   1.477       .  S
O465      Cu2329   2.023       .  S
O465       C1403   1.276       .  A
O466       Cu473   2.024       .  S
O466       C1404   1.276       .  A
O467       Cu473   2.020       .  S
O467       C1405   1.285       .  A
O468       Cu473   2.036       .  S
O468       C1406   1.283       .  A
O469       Cu474   1.973       .  S
O469        C478   1.271       .  A
O470       Cu474   1.982       .  S
O470        C477   1.270   1_545  A
O471       Cu474   2.072       .  S
O471        C476   1.288   1_545  A
O472      Cu2330   2.069       .  S
O472        C475   1.288   1_545  A
Cu473      O2321   2.023       .  S
Cu473     Cu1402   2.369       .  S
Cu474      O2328   2.066       .  S
Cu474     Cu1401   2.367   1_545  S
C475        C503   1.496       .  S
C475       O1393   1.276       .  A
C476        C504   1.500       .  S
C476       O1394   1.277       .  A
C477        C670   1.473   1_554  S
C477       O1395   1.286       .  A
C478        C800   1.492       .  S
C478       O1396   1.286   1_545  A
O479       Cu487   2.054       .  S
O479        C489   1.284       .  A
O480      Cu2343   2.045   1_455  S
O480        C490   1.283       .  A
O481       Cu487   2.016       .  S
O481        C491   1.276       .  A
O482       Cu487   2.020       .  S
O482        C492   1.278       .  A
O483       Cu488   2.032       .  S
O483        C492   1.280       .  A
O484       Cu488   2.022       .  S
O484        C491   1.282       .  A
O485      Cu2344   2.040   1_455  S
O485        C490   1.280       .  A
O486       Cu488   2.035       .  S
O486        C489   1.279       .  A
Cu487      O2336   2.059       .  S
Cu487      Cu488   2.369       .  S
Cu488      O2341   2.046       .  S
C489        C517   1.495       .  S
C490        C518   1.492       .  S
C491        C682   1.474   1_554  S
C492        C790   1.480       .  S
O493       Cu501   2.023       .  S
O493        C503   1.275   1_545  A
O494       Cu501   2.028       .  S
O494        C504   1.276   1_545  A
O495       Cu501   2.052       .  S
O495        C505   1.288   1_545  A
O496       Cu501   2.068       .  S
O496        C506   1.287   1_545  A
O497       Cu502   1.961       .  S
O497       C1434   1.270       .  A
O498       Cu502   1.968       .  S
O498       C1433   1.268       .  A
O499       Cu502   2.066       .  S
O499       C1432   1.287       .  A
O500       Cu502   2.065       .  S
O500       C1431   1.287       .  A
Cu501     Cu1430   2.368   1_545  S
Cu502     Cu1429   2.368       .  S
C503       O1428   1.288       .  A
C504       O1427   1.288       .  A
C505        C696   1.474   1_554  S
C505       O1426   1.269       .  A
C506        C780   1.492       .  S
C506       O1425   1.271       .  A
O507       Cu515   2.031       .  S
O507        C517   1.279       .  A
O508       Cu515   2.029       .  S
O508        C518   1.279       .  A
O509       Cu515   1.976       .  S
O509        C519   1.274       .  A
O510       Cu515   1.979       .  S
O510        C520   1.277       .  A
O511       Cu516   2.021       .  S
O511        C520   1.276       .  A
O512       Cu516   2.007       .  S
O512        C519   1.279       .  A
O513       Cu516   2.054       .  S
O513        C518   1.284       .  A
O514       Cu516   2.057       .  S
O514        C517   1.285       .  A
Cu515      Cu516   2.371       .  S
C519        C770   1.471       .  S
C520        C710   1.462   1_554  S
N521        C526   1.350       .  A
N521       C1453   1.369       .  A
N521        H553   1.042       .  S
N522        C530   1.338       .  A
N522       C1457   1.345       .  A
N523        C528   1.352       .  A
N523        C527   1.345       .  A
N523        H554   1.039       .  S
N524        C531   1.346       .  A
N524        C532   1.355       .  A
C525       N1449   1.358       .  A
C525        C533   1.384       .  A
C525        C541   1.414       .  A
C526        C542   1.425   1_545  A
C526       C1462   1.380       .  A
C527        C535   1.384       .  A
C527        C544   1.411       .  A
C528        C536   1.389       .  A
C528       C2399   1.419       .  A
C529       N1450   1.346       .  A
C529        C537   1.383       .  A
C529       C2397   1.408       .  A
C530        C544   1.401       .  A
C530       C1466   1.376       .  A
C531        C539   1.388       .  A
C531        C542   1.410   1_545  A
C532        C540   1.379       .  A
C532        C543   1.405       .  A
C533        C534   1.380       .  A
C533        H545   1.081       .  S
C534       C1454   1.386       .  A
C534        H546   1.082       .  S
C535        C536   1.380       .  A
C535        H547   1.082       .  S
C536        H548   1.081       .  S
C537        C538   1.385       .  A
C537        H549   1.081       .  S
C538       C1458   1.369       .  A
C538        H550   1.068       .  S
C539        C540   1.370       .  A
C539        H551   1.082       .  S
C540        H552   1.082       .  S
C541       C2385   1.405       .  A
C542        C609   1.533       .  S
C543       C2384   1.417       .  A
C543        C803   1.498       .  S
C544        C611   1.531       .  S
N555        C560   1.353       .  A
N555        C559   1.365       .  A
N555        H587   1.043       .  S
N556        C563   1.347       .  A
N556        C564   1.340   1_655  A
N557        C562   1.346   1_455  A
N557        C561   1.349       .  A
N557        H588   1.045       .  S
N558        C565   1.343       .  A
N558        C566   1.358       .  A
C559        C567   1.379       .  A
C559        C575   1.417       .  A
C560        C576   1.428       .  A
C560        C568   1.392       .  A
C561        C569   1.384   1_455  A
C561        C578   1.412       .  A
C562        C570   1.389       .  A
C562       C2433   1.396       .  A
C563        C571   1.389   1_655  A
C563       C2431   1.415       .  A
C564        C578   1.402       .  A
C564        C572   1.389       .  A
C565        C573   1.394       .  A
C565        C576   1.415       .  A
C566        C574   1.375       .  A
C566        C577   1.414       .  A
C567        C568   1.373       .  A
C567        H579   1.080       .  S
C568        H580   1.082       .  S
C569        C570   1.384       .  A
C569        H581   1.082       .  S
C570        H582   1.083       .  S
C571        C572   1.376       .  A
C571        H583   1.080       .  S
C572        H584   1.083       .  S
C573        C574   1.382       .  A
C573        H585   1.082       .  S
C574        H586   1.078       .  S
C575       C2419   1.421       .  A
C576        C644   1.498       .  S
C577       C2418   1.392       .  A
C577        C793   1.500       .  S
C578        C646   1.496       .  S
N589        C594   1.352       .  A
N589       C1521   1.347       .  A
N589       H1549   1.035       .  S
N590        C597   1.342       .  A
N590        C598   1.344       .  A
N591        C596   1.345       .  A
N591        C595   1.356       .  A
N591        H622   1.044       .  S
N592        C600   1.346   1_565  A
N592       C1527   1.354       .  A
C593       N1517   1.346       .  A
C593        C609   1.408       .  A
C593       C1529   1.379       .  A
C594        C610   1.418       .  A
C594        C602   1.376       .  A
C595        C603   1.383       .  A
C595        C612   1.411       .  A
C596        C611   1.412   1_565  A
C596        C604   1.389       .  A
C597        C609   1.413       .  A
C597        C605   1.387       .  A
C598        C612   1.413       .  A
C598        C606   1.387       .  A
C599       N1520   1.356       .  A
C599        C607   1.381       .  A
C599        C610   1.421       .  A
C600        C611   1.417       .  A
C600       C1536   1.376       .  A
C601        C602   1.374       .  A
C601       C1521   1.381       .  A
C601        H613   1.079       .  S
C602        H614   1.066       .  S
C603        C604   1.379       .  A
C603        H615   1.082       .  S
C604        H616   1.082       .  S
C605        C606   1.380       .  A
C605        H617   1.082       .  S
C606        H618   1.081       .  S
C607        C608   1.373       .  A
C607        H619   1.080       .  S
C608       C1528   1.379       .  A
C608        H620   1.071       .  S
C612        C783   1.495       .  S
H621       N1517   1.035       .  S
N623        C628   1.347       .  A
N623        C627   1.357       .  A
N623        H655   1.032       .  S
N624        C631   1.354       .  A
N624        C632   1.350       .  A
N625        C630   1.346       .  A
N625        C629   1.346       .  A
N625        H656   1.040       .  S
N626        C633   1.349       .  A
N626        C634   1.355       .  A
C627        C635   1.386       .  A
C627        C643   1.423       .  A
C628        C644   1.418       .  A
C628        C636   1.387       .  A
C629        C637   1.388       .  A
C629        C646   1.405       .  A
C630        C645   1.403       .  A
C630        C638   1.387       .  A
C631        C643   1.419       .  A
C631        C639   1.382       .  A
C632        C646   1.416       .  A
C632        C640   1.383       .  A
C633        C641   1.388       .  A
C633        C644   1.424       .  A
C634        C642   1.377       .  A
C634        C645   1.399       .  A
C635        C636   1.372       .  A
C635        H647   1.079       .  S
C636        H648   1.080       .  S
C637        C638   1.371       .  A
C637        H649   1.082       .  S
C638        H650   1.079       .  S
C639        C640   1.369       .  A
C639        H651   1.075       .  S
C640        H652   1.079       .  S
C641        C642   1.361       .  A
C641        H653   1.073       .  S
C642        H654   1.082       .  S
C645        C773   1.478       .  S
O657      Cu2521   2.066       .  S
O657       C1595   1.287       .  A
O658       Cu665   2.079       .  S
O658       C1596   1.289       .  A
O659       Cu665   1.933       .  S
O659       C1597   1.264       .  A
O660       Cu665   1.941       .  S
O660       C1598   1.265       .  A
O661       Cu666   2.043       .  S
O661        C670   1.286   1_545  A
O662       Cu666   2.052       .  S
O662        C669   1.285   1_545  A
O663       Cu666   2.031       .  S
O663        C668   1.276   1_545  A
O664      Cu2522   2.023       .  S
O664        C667   1.275   1_545  A
Cu665      O2513   2.084       .  S
Cu665     Cu1594   2.366       .  S
Cu666      O2520   2.026       .  S
Cu666     Cu1593   2.369   1_545  S
C667        C697   1.497       .  S
C667       O1585   1.289       .  A
C668        C698   1.497       .  S
C668       O1586   1.288       .  A
C669        C883   1.486       .  S
C669       O1587   1.272       .  A
C670       O1588   1.271       .  A
O671       Cu679   2.062       .  S
O671        C681   1.286       .  A
O672       Cu679   2.050       .  S
O672        C682   1.284       .  A
O673      Cu2535   2.042   1_455  S
O673        C683   1.280       .  A
O674       Cu679   2.032       .  S
O674        C684   1.278       .  A
O675       Cu680   2.063       .  S
O675        C684   1.286       .  A
O676      Cu2536   2.064   1_455  S
O676        C683   1.285       .  A
O677       Cu680   1.982       .  S
O677        C682   1.272       .  A
O678       Cu680   1.976       .  S
O678        C681   1.272       .  A
Cu679      O2529   2.031       .  S
Cu679      Cu680   2.367       .  S
Cu680      O2532   2.058       .  S
C681        C873   1.492       .  S
C683        C712   1.502       .  S
C684        C711   1.496       .  S
O685       Cu693   2.044       .  S
O685       C1623   1.283       .  A
O686       Cu693   2.030       .  S
O686       C1624   1.284       .  A
O687       Cu693   2.032       .  S
O687       C1625   1.277       .  A
O688       Cu693   2.028       .  S
O688       C1626   1.276       .  A
O689       Cu694   2.081       .  S
O689        C698   1.289   1_545  A
O690       Cu694   2.079       .  S
O690        C697   1.290   1_545  A
O691       Cu694   1.974       .  S
O691        C696   1.268   1_545  A
O692       Cu694   1.958       .  S
O692        C695   1.270       .  A
Cu693     Cu1622   2.369       .  S
Cu694     Cu1621   2.367   1_545  S
C695        C860   1.495       .  S
C695       O1613   1.288   1_545  A
C696       O1614   1.289       .  A
C697       O1615   1.274       .  A
C698       O1616   1.274       .  A
O699       Cu707   1.950       .  S
O699        C709   1.269       .  A
O700       Cu707   1.951       .  S
O700        C710   1.270       .  A
O701       Cu707   2.056       .  S
O701        C711   1.285       .  A
O702       Cu707   2.061       .  S
O702        C712   1.285       .  A
O703       Cu708   2.047       .  S
O703        C712   1.280       .  A
O704       Cu708   2.037       .  S
O704        C711   1.279       .  A
O705       Cu708   2.045       .  S
O705        C710   1.282       .  A
O706       Cu708   2.051       .  S
O706        C709   1.285       .  A
Cu707      Cu708   2.368       .  S
C709        C853   1.479       .  S
O713      Cu1649   2.036   1_545  S
O713        C723   1.277       .  A
O714       Cu721   2.039       .  S
O714        C724   1.278       .  A
O715       Cu721   2.054       .  S
O715       C2581   1.285       .  A
O716       Cu721   2.039       .  S
O716        C726   1.284       .  A
O717       Cu722   1.981       .  S
O717       C2582   1.271   1_455  A
O718       Cu722   1.974       .  S
O718        C725   1.272       .  A
O719       Cu722   2.072       .  S
O719       C2580   1.288       .  A
O720      Cu1650   2.082       .  S
O720       C2579   1.290       .  A
Cu721      O1641   2.035       .  S
Cu721     Cu2578   2.367       .  S
Cu722      O1648   2.072       .  S
Cu722     Cu2577   2.367   1_455  S
C723        C737   1.506       .  S
C723       O2576   1.289       .  A
C724        C738   1.503       .  S
C724       O2575   1.288       .  A
C725        C920   1.487       .  S
C725       O2571   1.285   1_455  A
C726       O2573   1.272       .  A
O727       Cu735   2.033       .  S
O727       C2593   1.277       .  A
O728       Cu735   2.033       .  S
O728       C2594   1.278   1_455  A
O729       Cu735   2.072       .  S
O729        C739   1.288   1_455  A
O730       Cu735   2.058       .  S
O730       C2596   1.287   1_455  A
O731       Cu736   1.986       .  S
O731        C740   1.270       .  A
O732       Cu736   1.969       .  S
O732       C2595   1.270       .  A
O733       Cu736   2.079       .  S
O733        C738   1.289       .  A
O734       Cu736   2.086       .  S
O734        C737   1.290       .  A
Cu735     Cu2592   2.364   1_455  S
Cu736     Cu2591   2.364       .  S
C737       O2583   1.276       .  A
C738       O2584   1.277       .  A
C739        C913   1.494       .  S
C739       O2588   1.270       .  A
C740       O2586   1.287       .  A
O741       Cu749   1.967       .  S
O741        C751   1.271       .  A
O742       Cu749   1.977       .  S
O742       C1680   1.274       .  A
O743       Cu749   2.063   1_545  S
O743        C753   1.285       .  A
O744      Cu1677   2.060       .  S
O744        C754   1.284       .  A
O745      Cu1678   2.041       .  S
O745        C754   1.280       .  A
O746       Cu750   2.053   1_545  S
O746        C753   1.282       .  A
O747       Cu750   2.060       .  S
O747       C1680   1.283       .  A
O748       Cu750   2.056       .  S
O748        C751   1.285       .  A
Cu749      O1672   2.059       .  S
Cu749      Cu750   2.364       .  S
Cu750      O1673   2.054       .  S
C751        C900   1.491       .  S
C752       O1670   1.273       .  A
C752       O1675   1.286       .  A
C753        C765   1.506       .  S
C754        C766   1.500       .  S
O755       Cu763   2.054       .  S
O755        C765   1.283       .  A
O756       Cu763   2.046       .  S
O756        C766   1.281       .  A
O757       Cu763   2.060       .  S
O757        C767   1.285       .  A
O758       Cu763   2.045       .  S
O758        C768   1.281       .  A
O759       Cu764   1.998       .  S
O759        C768   1.277       .  A
O760       Cu764   2.002       .  S
O760        C767   1.277       .  A
O761       Cu764   2.057       .  S
O761        C766   1.284       .  A
O762       Cu764   2.060       .  S
O762        C765   1.284       .  A
Cu763      Cu764   2.364       .  S
C767        C893   1.503       .  S
C769        C770   1.404       .  A
C769        C774   1.394       .  A
C769        H776   1.083       .  S
C770        C771   1.410       .  A
C771        C772   1.392       .  A
C771        F778   1.358       .  S
C772        C773   1.401       .  A
C772        H777   1.083       .  S
C773        C774   1.402       .  A
C774        F775   1.356       .  S
C779        C780   1.404   1_545  A
C779        C784   1.406       .  A
C779        H786   1.083       .  S
C780       C1709   1.415       .  A
C781        C782   1.396       .  A
C781       C1708   1.418       .  A
C781        F788   1.358       .  S
C782       C1711   1.394       .  A
C782        H787   1.084       .  S
C783        C784   1.413   1_565  A
C783       C1710   1.399       .  A
C784        F785   1.356       .  S
C789        C790   1.401       .  A
C789        C794   1.399       .  A
C789        H796   1.084       .  S
C790        C791   1.406       .  A
C791        C792   1.409       .  A
C791       F2654   1.358       .  S
C792        C793   1.411       .  A
C792       H2653   1.081       .  S
C793        C794   1.410       .  A
C794        F795   1.357       .  S
H797       C2648   1.083       .  S
F798       C2647   1.357       .  S
C799        C804   1.403       .  A
C799       C2656   1.402   1_665  A
C799       H1734   1.083       .  S
C800        C801   1.417       .  A
C800       C2655   1.404   1_545  A
C801        C802   1.398       .  A
C801        F808   1.358       .  S
C802        C803   1.400       .  A
C802        H807   1.083       .  S
C803       C2660   1.414   1_545  A
C804       C2659   1.416   1_665  A
C804       F1733   1.358       .  S
F805       C1732   1.358       .  S
H806       C1727   1.083       .  S
C809        C810   1.404       .  A
C809        C814   1.401       .  A
C809        H816   1.084       .  S
C810        C811   1.397       .  A
C811        C812   1.394       .  A
C811        F818   1.357       .  S
C812        C813   1.412       .  A
C812        H817   1.083       .  S
C813        C814   1.409       .  A
C814        F815   1.357       .  S
C819        C820   1.402       .  A
C819        C824   1.403       .  A
C819        H826   1.084       .  S
C820       C1749   1.412       .  A
C821        C822   1.404       .  A
C821       C1748   1.408       .  A
C821        F828   1.358       .  S
C822       C1751   1.407       .  A
C822        H827   1.083       .  S
C823        C824   1.418       .  A
C823       C1750   1.409       .  A
C824        F825   1.356       .  S
C829        C830   1.403       .  A
C829        C834   1.408       .  A
C829       H2692   1.081       .  S
C830        C831   1.417       .  A
C831        C832   1.403       .  A
C831        F838   1.358       .  S
C832        C833   1.402       .  A
C832        H837   1.083       .  S
C833        C834   1.418       .  A
C834       F2691   1.357       .  S
F835       C2690   1.357       .  S
H836       C2685   1.079       .  S
C839        C844   1.402       .  A
C839       C1768   1.403       .  A
C839       H2702   1.083       .  S
C840        C841   1.416       .  A
C840       C1767   1.403       .  A
C841        C842   1.402       .  A
C841        F848   1.356       .  S
C842        C843   1.402       .  A
C842        H847   1.083       .  S
C843       C1772   1.410       .  A
C844       C1771   1.412       .  A
C844       F2701   1.358       .  S
F845       C2700   1.358       .  S
H846       C2695   1.083       .  S
C849        C850   1.409       .  A
C849        C854   1.398       .  A
C849        H856   1.084       .  S
C850        C851   1.397       .  A
C851        C852   1.394       .  A
C851        F858   1.358       .  S
C852        C853   1.413       .  A
C852        H857   1.083       .  S
C853        C854   1.403       .  A
C854        F855   1.357       .  S
C859        C860   1.414       .  A
C859        C864   1.393       .  A
C859        H866   1.083       .  S
C860        C861   1.408   1_545  A
C861        C862   1.409       .  A
C861        F868   1.357       .  S
C862        C863   1.411   1_565  A
C862        H867   1.084       .  S
C863        C864   1.396       .  A
C864        F865   1.356       .  S
C869        C874   1.403       .  A
C869       C2726   1.407       .  A
C869        H876   1.084       .  S
C870        C871   1.402       .  A
C870       C2725   1.409       .  A
C871        C872   1.397       .  A
C871        F878   1.357       .  S
C872        C873   1.413       .  A
C872        H877   1.083       .  S
C873       C2730   1.408       .  A
C874       C2729   1.409       .  A
C874        F875   1.357       .  S
C879        C880   1.401       .  A
C879        C884   1.398       .  A
C879        H886   1.084       .  S
C880       C2737   1.412       .  A
C881        C882   1.406       .  A
C881       C2736   1.412       .  A
C881        F888   1.358   1_565  S
C882       C2739   1.406       .  A
C882        H887   1.083   1_565  S
C883        C884   1.414       .  A
C883       C2738   1.403       .  A
C884       F1813   1.358       .  S
F885       C1812   1.358       .  S
C889        C890   1.409       .  A
C889        C894   1.411       .  A
C889        H896   1.083       .  S
C890        C891   1.405       .  A
C891        C892   1.401       .  A
C891        F898   1.357       .  S
C892        C893   1.411       .  A
C892        H897   1.082       .  S
C893        C894   1.412       .  A
C894        F895   1.357       .  S
C899        C900   1.405   1_545  A
C899        C904   1.404       .  A
C899        H906   1.082       .  S
C900       C1829   1.417   1_565  A
C901        C902   1.397       .  A
C901       C1828   1.417       .  A
C901        F908   1.358       .  S
C902       C1831   1.398       .  A
C902        H907   1.084       .  S
C903        C904   1.410       .  A
C903       C1830   1.398       .  A
C904        F905   1.357       .  S
C909        C914   1.397       .  A
C909       C2766   1.395       .  A
C909        H916   1.084       .  S
C910        C911   1.406   1_655  A
C910       C2765   1.396       .  A
C911        C912   1.405       .  A
C911        F918   1.353       .  S
C912        C913   1.405   1_455  A
C912        H917   1.082       .  S
C913       C2770   1.419       .  A
C914       C2769   1.420       .  A
C914        F915   1.357       .  S
C919        C924   1.399       .  A
C919       C1848   1.410       .  A
C919        H926   1.084       .  S
C920       C1847   1.413       .  A
C920       C2777   1.404   1_455  A
C921        C922   1.405       .  A
C921       C2776   1.407       .  A
C921        F928   1.357       .  S
C922       C2779   1.407       .  A
C922        H927   1.084       .  S
C923       C2778   1.408       .  A
C923       C1852   1.398       .  A
C924       C1851   1.403       .  A
C924        F925   1.357       .  S
N929        C934   1.352       .  A
N929        C933   1.349       .  A
N929        H961   1.037       .  S
N930        C937   1.339       .  A
N930        C938   1.339       .  A
N931        C936   1.351       .  A
N931        C935   1.355       .  A
N931        H962   1.038       .  S
N932        C939   1.349       .  A
N932        C940   1.342       .  A
C933        C941   1.389       .  A
C933       C2805   1.423       .  A
C934        C950   1.421       .  A
C934        C942   1.388       .  A
C935        C943   1.382       .  A
C935        C952   1.419       .  A
C936       C2807   1.433       .  A
C936        C944   1.390       .  A
C937        C949   1.400       .  A
C937        C945   1.383       .  A
C938        C946   1.388       .  A
C939        C947   1.379       .  A
C940        C948   1.384       .  A
C940        C951   1.406       .  A
C941        C942   1.382       .  A
C941        H953   1.082       .  S
C942        H954   1.081       .  S
C943        C944   1.381       .  A
C943        H955   1.081       .  S
C944        H956   1.080       .  S
C945        C946   1.384       .  A
C945        H957   1.081       .  S
C946        H958   1.082       .  S
C947        C948   1.367       .  A
C947        H959   1.079       .  S
C948        H960   1.079       .  S
C949       C2789   1.408       .  A
C949       C2839   1.518   1_455  S
C950       C1086   1.508       .  S
C951       C2792   1.420       .  A
C951        C985   1.533       .  S
C952       C1851   1.498       .  S
N963        C968   1.356       .  A
N963        C967   1.348       .  A
N963        H995   1.043       .  S
N964        C971   1.338       .  A
N964        C972   1.344       .  A
N965        C970   1.339       .  A
N965        C969   1.354       .  A
N965       H2852   1.045   1_655  S
N966        C973   1.345       .  A
N966        C974   1.344       .  A
C967        C975   1.385       .  A
C967        C983   1.411       .  A
C968        C984   1.412       .  A
C968        C976   1.379       .  A
C969        C977   1.385       .  A
C969        C986   1.408       .  A
C970       C2841   1.398   1_655  A
C970        C978   1.387       .  A
C971       C2839   1.406       .  A
C971        C979   1.381       .  A
C972        C986   1.410       .  A
C972        C980   1.385       .  A
C973        C981   1.389       .  A
C973        C984   1.416       .  A
C974        C982   1.388       .  A
C974        C985   1.415       .  A
C975        C976   1.376       .  A
C975        H987   1.082       .  S
C976        H988   1.080       .  S
C977        C978   1.382       .  A
C977        H989   1.082       .  S
C978        H990   1.082       .  S
C979        C980   1.392       .  A
C979        H991   1.078       .  S
C980        H992   1.082       .  S
C981        C982   1.385       .  A
C981        H993   1.082       .  S
C982        H994   1.082       .  S
C983       C2827   1.416       .  A
C983       C2805   1.530       .  S
C984       C1119   1.503       .  S
C985       C2826   1.403       .  A
C986       C1838   1.488       .  S
H996       N2821   1.036       .  S
N997       C1002   1.348       .  A
N997       C1001   1.358       .  A
N997       H1029   1.042       .  S
N998       C1005   1.351       .  A
N998       C1006   1.347   1_545  A
N999       C1004   1.350       .  A
N999       C1003   1.342       .  A
N999       H1030   1.033   1_565  S
N1000      C1007   1.343       .  A
N1000      C1008   1.350       .  A
C1001      C1009   1.381       .  A
C1001      C1017   1.421       .  A
C1002      C1018   1.412       .  A
C1002      C1010   1.386       .  A
C1003      C1011   1.385       .  A
C1003      C1020   1.406       .  A
C1004      C1012   1.390       .  A
C1005      C1013   1.388   1_545  A
C1006      C1020   1.425       .  A
C1006      C1014   1.388       .  A
C1007      C1015   1.389       .  A
C1007      C1018   1.413       .  A
C1008      C1016   1.383       .  A
C1008      C1019   1.412       .  A
C1009      C1010   1.376       .  A
C1009      H1021   1.076       .  S
C1010      H1022   1.083       .  S
C1011      C1012   1.377       .  A
C1011      H1023   1.082       .  S
C1012      H1024   1.080       .  S
C1013      C1014   1.383       .  A
C1013      H1025   1.081       .  S
C1014      H1026   1.081       .  S
C1015      C1016   1.377       .  A
C1015      H1027   1.082       .  S
C1016      H1028   1.082       .  S
C1017      C1154   1.512       .  S
C1018      C1052   1.525       .  S
C1019      C1831   1.494       .  S
C1020      C1054   1.530       .  S
N1031      C1036   1.348       .  A
N1031      C1035   1.349       .  A
N1031      H1063   1.036       .  S
N1032      C1039   1.349       .  A
N1032      C1040   1.343       .  A
N1033      C1038   1.361       .  A
N1033      C1037   1.350       .  A
N1033      H1064   1.042       .  S
N1034      C1041   1.337       .  A
N1034      C1042   1.337       .  A
C1035      C1043   1.386       .  A
C1035      C1051   1.415       .  A
C1036      C1052   1.419       .  A
C1036      C1044   1.383       .  A
C1037      C1045   1.389       .  A
C1037      C1054   1.425       .  A
C1038      C1053   1.420       .  A
C1038      C1046   1.382       .  A
C1039      C1051   1.407       .  A
C1039      C1047   1.377       .  A
C1040      C1054   1.401       .  A
C1040      C1048   1.383       .  A
C1041      C1049   1.385       .  A
C1041      C1052   1.404       .  A
C1042      C1050   1.387       .  A
C1042      C1053   1.404       .  A
C1043      C1044   1.379       .  A
C1043      H1055   1.082       .  S
C1044      H1056   1.074       .  S
C1045      C1046   1.382       .  A
C1045      H1057   1.081       .  S
C1046      H1058   1.081       .  S
C1047      C1048   1.368       .  A
C1047      H1059   1.078       .  S
C1048      H1060   1.082       .  S
C1049      C1050   1.379       .  A
C1049      H1061   1.081       .  S
C1050      H1062   1.082       .  S
C1051      C1187   1.497       .  S
C1053      C1818   1.486       .  S
N1065      C1070   1.355       .  A
N1065      C1069   1.347       .  A
N1065      H1097   1.042       .  S
N1066      C1073   1.341       .  A
N1066      C1074   1.346       .  A
N1067      C1072   1.344       .  A
N1067      C1071   1.352       .  A
N1067      H1098   1.040       .  S
N1068      C1075   1.346       .  A
N1068      C1076   1.342       .  A
C1069      C1077   1.387       .  A
C1069      C1085   1.413       .  A
C1070      C2942   1.408       .  A
C1070      C1078   1.379       .  A
C1071      C1079   1.388       .  A
C1071      C1088   1.416       .  A
C1072      C1087   1.408       .  A
C1072      C1080   1.388       .  A
C1073      C1085   1.410       .  A
C1073      C1081   1.386       .  A
C1074      C2944   1.411       .  A
C1074      C1082   1.384       .  A
C1075      C1083   1.388       .  A
C1075      C1086   1.419       .  A
C1076      C1084   1.388       .  A
C1076      C1087   1.407       .  A
C1077      C1078   1.377       .  A
C1077      H1089   1.082       .  S
C1078      H1090   1.077       .  S
C1079      C1080   1.381       .  A
C1079      H1091   1.082       .  S
C1080      H1092   1.083       .  S
C1081      C1082   1.376       .  A
C1081      H1093   1.079       .  S
C1082      H1094   1.082       .  S
C1083      C1084   1.380       .  A
C1083      H1095   1.081       .  S
C1084      H1096   1.083       .  S
C1085      C1153   1.528       .  S
C1086      C2926   1.417       .  A
C1087      C1155   1.525       .  S
C1088      C2930   1.402       .  A
C1088      C1808   1.486       .  S
N1099      C1104   1.346   1_655  A
N1099      C1103   1.355       .  A
N1099      H1131   1.034       .  S
N1100      C1107   1.350       .  A
N1100      C1108   1.342       .  A
N1101      C1106   1.356       .  A
N1101      C1105   1.345       .  A
N1101      H1132   1.043       .  S
N1102      C1109   1.343   1_655  A
N1102      C1110   1.348       .  A
C1103      C1111   1.390   1_655  A
C1103      C2975   1.426       .  A
C1104      C1120   1.414       .  A
C1104      C1112   1.385       .  A
C1105      C1113   1.381       .  A
C1105      C1122   1.404       .  A
C1106      C1121   1.415       .  A
C1106      C1114   1.383       .  A
C1107      C1119   1.408       .  A
C1107      C1115   1.383       .  A
C1108      C1122   1.408       .  A
C1108      C1116   1.385       .  A
C1109      C1117   1.388       .  A
C1109      C1120   1.411       .  A
C1110      C1118   1.377   1_655  A
C1110      C2977   1.405       .  A
C1111      C1112   1.382       .  A
C1111      H1123   1.081       .  S
C1112      H1124   1.079       .  S
C1113      C1114   1.370       .  A
C1113      H1125   1.081       .  S
C1114      H1126   1.073       .  S
C1115      C1116   1.373       .  A
C1115      H1127   1.078       .  S
C1116      H1128   1.079       .  S
C1117      C1118   1.379       .  A
C1117      H1129   1.079       .  S
C1118      H1130   1.082       .  S
C1119      C2959   1.425       .  A
C1120      C1188   1.528       .  S
C1121      C2966   1.417       .  A
C1121      C1798   1.501       .  S
C1122      C1190   1.525       .  S
N1133      C1138   1.355       .  A
N1133      C1137   1.347       .  A
N1133      H1165   1.039       .  S
N1134      C1141   1.339       .  A
N1134      C1142   1.345       .  A
N1135      C1140   1.343       .  A
N1135      C1139   1.355       .  A
N1135      H1166   1.043       .  S
N1136      C1143   1.353       .  A
N1136      C1144   1.342       .  A
C1137      C1145   1.386       .  A
C1137      C1153   1.414       .  A
C1138      C1154   1.419       .  A
C1138      C1146   1.381       .  A
C1139      C1147   1.381       .  A
C1139      C1156   1.407       .  A
C1140      C1155   1.411       .  A
C1140      C1148   1.388       .  A
C1141      C1153   1.407       .  A
C1141      C1149   1.387       .  A
C1142      C1156   1.409       .  A
C1142      C1150   1.385       .  A
C1143      C1151   1.379       .  A
C1143      C1154   1.405       .  A
C1144      C1152   1.383       .  A
C1144      C1155   1.407       .  A
C1145      C1146   1.374       .  A
C1145      H1157   1.079       .  S
C1146      H1158   1.078       .  S
C1147      C1148   1.380       .  A
C1147      H1159   1.081       .  S
C1148      H1160   1.080       .  S
C1149      C1150   1.383       .  A
C1149      H1161   1.079       .  S
C1150      H1162   1.082       .  S
C1151      C1152   1.374       .  A
C1151      H1163   1.076       .  S
C1152      H1164   1.078       .  S
C1156      C1791   1.489       .  S
N1167      C1172   1.348       .  A
N1167      C1171   1.356       .  A
N1167      H1199   1.043       .  S
N1168      C1175   1.344       .  A
N1168      C1176   1.343       .  A
N1169      C1174   1.350       .  A
N1169      C1173   1.343       .  A
N1169      H1200   1.039       .  S
N1170      C1177   1.344       .  A
N1170      C1178   1.352       .  A
C1171      C1179   1.381       .  A
C1171      C1187   1.411       .  A
C1172      C1188   1.409       .  A
C1172      C1180   1.383       .  A
C1173      C1181   1.390       .  A
C1173      C1190   1.412       .  A
C1174      C1189   1.411       .  A
C1174      C1182   1.386       .  A
C1175      C1187   1.414       .  A
C1175      C1183   1.389       .  A
C1176      C1190   1.403       .  A
C1176      C1184   1.386       .  A
C1177      C1185   1.387       .  A
C1177      C1188   1.405       .  A
C1178      C1186   1.379       .  A
C1178      C1189   1.397       .  A
C1179      C1180   1.367       .  A
C1179      H1191   1.074       .  S
C1180      H1192   1.077       .  S
C1181      C1182   1.385       .  A
C1181      H1193   1.083       .  S
C1182      H1194   1.082       .  S
C1183      C1184   1.375       .  A
C1183      H1195   1.080       .  S
C1184      H1196   1.082       .  S
C1185      C1186   1.372       .  A
C1185      H1197   1.082       .  S
C1186      H1198   1.080       .  S
C1189      C1778   1.484       .  S
N1201      C1206   1.358       .  A
N1201      C1205   1.348       .  A
N1201      H1233   1.044       .  S
N1202      C1209   1.346       .  A
N1202      C1210   1.355       .  A
N1203      C1208   1.344   1_545  A
N1203      C1207   1.350       .  A
N1203      H1234   1.043       .  S
N1204      C1211   1.352       .  A
N1204      C1212   1.346       .  A
C1205      C1213   1.396       .  A
C1205      C1221   1.422       .  A
C1206      C1214   1.372       .  A
C1207      C1215   1.371   1_545  A
C1207      C1224   1.380       .  A
C1208      C1223   1.418       .  A
C1208      C1216   1.400       .  A
C1209      C1221   1.415       .  A
C1209      C1217   1.395       .  A
C1210      C1218   1.379       .  A
C1211      C1219   1.382       .  A
C1211      C1222   1.426       .  A
C1212      C1220   1.389   1_545  A
C1212      C1223   1.417   1_545  A
C1213      C1214   1.360       .  A
C1213      H1225   1.076       .  S
C1214      H1226   1.082       .  S
C1215      C1216   1.362       .  A
C1215      H1227   1.083       .  S
C1216      H1228   1.078       .  S
C1217      C1218   1.374       .  A
C1217      H1229   1.083       .  S
C1218      H1230   1.081       .  S
C1219      C1220   1.381   1_545  A
C1219      H1231   1.072       .  S
C1220      H1232   1.083       .  S
C1221      C1258   1.486       .  S
C1222      C1469   1.537       .  S
C1223      C1256   1.487       .  S
C1224      C1771   1.489       .  S
N1235      C1240   1.352       .  A
N1235      C1239   1.358       .  A
N1235      H1267   1.043       .  S
N1236      C1243   1.350       .  A
N1236      C1244   1.344       .  A
N1237      C1242   1.351       .  A
N1237      C1241   1.345       .  A
N1237      H1268   1.045       .  S
N1238      C1245   1.344       .  A
N1238      C1246   1.355       .  A
C1239      C1247   1.367       .  A
C1239      C1255   1.396       .  A
C1240      C1256   1.423       .  A
C1240      C1248   1.394       .  A
C1241      C1249   1.397       .  A
C1241      C1258   1.414       .  A
C1242      C1257   1.381       .  A
C1242      C1250   1.372       .  A
C1243      C1255   1.414       .  A
C1243      C1251   1.388       .  A
C1244      C1258   1.408       .  A
C1244      C1252   1.388       .  A
C1245      C1253   1.395       .  A
C1245      C1256   1.418       .  A
C1246      C1254   1.378       .  A
C1246      C1257   1.404       .  A
C1247      C1248   1.348       .  A
C1247      H1259   1.067       .  S
C1248      H1260   1.071       .  S
C1249      C1250   1.362       .  A
C1249      H1261   1.080       .  S
C1250      H1262   1.083       .  S
C1251      C1252   1.372       .  A
C1251      H1263   1.075       .  S
C1252      H1264   1.083       .  S
C1253      C1254   1.379       .  A
C1253      H1265   1.083       .  S
C1254      H1266   1.081       .  S
C1255      C1503   1.510       .  S
C1257      C1758   1.493       .  S
N1269      C1274   1.341       .  A
N1269      C1273   1.356       .  A
N1269      H1301   1.040       .  S
N1270      C1277   1.347       .  A
N1270      C1278   1.342       .  A
N1271      C1276   1.353       .  A
N1271      C1275   1.347       .  A
N1271      H1302   1.042       .  S
N1272      C1279   1.344       .  A
N1272      C1280   1.346       .  A
C1273      C1281   1.390       .  A
C1274      C1290   1.404       .  A
C1274      C1282   1.384       .  A
C1275      C1283   1.391       .  A
C1275      C1292   1.418       .  A
C1276      C1291   1.410       .  A
C1276      C1284   1.383       .  A
C1277      C1289   1.408       .  A
C1277      C1285   1.383       .  A
C1278      C1292   1.414       .  A
C1278      C1286   1.391       .  A
C1279      C1287   1.386       .  A
C1279      C1290   1.406       .  A
C1280      C1288   1.388       .  A
C1281      C1282   1.387       .  A
C1281      H1293   1.077       .  S
C1282      H1294   1.083       .  S
C1283      C1284   1.384       .  A
C1283      H1295   1.082       .  S
C1284      H1296   1.082       .  S
C1285      C1286   1.377       .  A
C1285      H1297   1.080       .  S
C1286      H1298   1.082       .  S
C1287      C1288   1.379       .  A
C1287      H1299   1.082       .  S
C1288      H1300   1.082       .  S
C1289      C1538   1.501       .  S
C1290      C1325   1.532       .  S
C1291      C1748   1.486       .  S
C1292      C1323   1.504       .  S
N1303      C1308   1.341       .  A
N1303      C1307   1.348       .  A
N1303      H1335   1.045       .  S
N1304      C1311   1.342       .  A
N1304      C1312   1.337       .  A
N1305      C1310   1.348       .  A
N1305      C1309   1.358       .  A
N1305      H1336   1.045       .  S
N1306      C1313   1.359       .  A
N1306      C1314   1.347       .  A
C1307      C1315   1.386       .  A
C1307      C1323   1.405       .  A
C1308      C1324   1.388       .  A
C1308      C1316   1.388       .  A
C1309      C1317   1.381       .  A
C1309      C1326   1.407       .  A
C1310      C1325   1.416       .  A
C1310      C1318   1.389       .  A
C1311      C1323   1.406       .  A
C1311      C1319   1.388       .  A
C1312      C1326   1.397       .  A
C1312      C1320   1.383       .  A
C1313      C1321   1.374       .  A
C1313      C1324   1.405       .  A
C1314      C1322   1.381       .  A
C1314      C1325   1.417       .  A
C1315      C1316   1.371       .  A
C1315      H1327   1.083       .  S
C1316      H1328   1.082       .  S
C1317      C1318   1.378       .  A
C1317      H1329   1.082       .  S
C1318      H1330   1.082       .  S
C1319      C1320   1.376       .  A
C1319      H1331   1.081       .  S
C1320      H1332   1.082       .  S
C1321      C1322   1.357       .  A
C1321      H1333   1.071       .  S
C1322      H1334   1.065       .  S
C1324      C1571   1.513       .  S
C1326      C1738   1.474       .  S
O1337     Cu1345   2.048       .  S
O1337      C3203   1.285   1_455  A
O1338     Cu1345   2.039       .  S
O1338      C3204   1.285       .  A
O1339     Cu1345   2.048   1_565  S
O1339      C3205   1.280       .  A
O1340      C3206   1.277   1_455  A
O1341      C1350   1.288       .  A
O1342     Cu1346   2.082   1_565  S
O1342      C1349   1.290       .  A
O1343     Cu1346   1.980       .  S
O1343      C1348   1.269       .  A
O1344     Cu1346   1.972       .  S
O1344      C1347   1.270       .  A
Cu1345    Cu3202   2.366   1_455  S
Cu1346    Cu3201   2.365       .  S
C1347      C1768   1.495       .  S
C1347      O3193   1.288       .  A
C1348      C1654   1.474   1_545  S
C1348      O3194   1.287       .  A
C1349      C1364   1.505       .  S
C1349      O3195   1.276       .  A
C1350      C1363   1.507       .  S
C1350      O3196   1.279       .  A
O1351     Cu1359   2.030       .  S
O1351      C1361   1.284       .  A
O1352     Cu1359   2.045       .  S
O1352      C1362   1.285       .  A
O1353     Cu1359   2.036       .  S
O1353      C1363   1.278       .  A
O1354     Cu1359   2.033       .  S
O1354      C1364   1.277       .  A
O1355     Cu1360   2.081       .  S
O1355      C3220   1.288       .  A
O1356     Cu1360   2.076       .  S
O1356      C3219   1.289   1_455  A
O1357     Cu1360   1.995       .  S
O1357      C3218   1.275   1_455  A
O1358     Cu1360   2.006       .  S
O1358      C3217   1.274       .  A
Cu1359    Cu3216   2.366       .  S
Cu1360    Cu3215   2.367   1_455  S
C1361      C1668   1.469       .  S
C1361      O3214   1.271       .  A
C1362      C1761   1.494       .  S
C1362      O3213   1.274       .  A
C1363      O3212   1.289       .  A
C1364      O3211   1.290       .  A
O1365     Cu1373   1.981       .  S
O1365      C1375   1.275       .  A
O1366     Cu1373   1.986       .  S
O1366      C1376   1.273       .  A
O1367      C1377   1.283       .  A
O1368     Cu1373   2.064       .  S
O1368      C1378   1.285       .  A
O1369     Cu1374   2.043       .  S
O1369      C1378   1.281       .  A
O1370      C1377   1.283       .  A
O1371     Cu1374   2.063       .  S
O1371      C1376   1.286       .  A
O1372     Cu1374   2.054       .  S
O1372      C1375   1.282       .  A
Cu1373    Cu1374   2.364       .  S
C1375      C1680   1.477       .  S
C1376      C1751   1.497       .  S
C1377      C1391   1.504       .  S
C1378      C1392   1.501       .  S
O1379     Cu1387   2.039       .  S
O1379      C1389   1.282       .  A
O1380     Cu1387   2.040       .  S
O1380      C1390   1.282       .  A
O1381     Cu1387   2.053       .  S
O1381      C1391   1.282       .  A
O1382     Cu1387   2.053       .  S
O1382      C1392   1.282       .  A
O1383     Cu1388   2.052       .  S
O1383      C1392   1.283       .  A
O1384     Cu1388   2.058       .  S
O1384      C1391   1.284       .  A
O1385     Cu1388   1.984       .  S
O1385      C1390   1.274       .  A
O1386     Cu1388   1.968       .  S
O1386      C1389   1.273       .  A
Cu1387    Cu1388   2.367       .  S
C1389      C1741   1.483       .  S
C1390      C1696   1.471       .  S
O1393     Cu3257   2.023       .  S
O1394     Cu1401   2.031       .  S
O1395     Cu1401   2.051       .  S
O1396     Cu1401   2.062       .  S
O1397     Cu1402   1.987       .  S
O1397      C1406   1.273       .  A
O1398     Cu1402   1.998       .  S
O1398      C1405   1.270       .  A
O1399     Cu1402   2.071       .  S
O1399      C1404   1.288       .  A
O1400     Cu3258   2.068       .  S
O1400      C1403   1.287       .  A
Cu1401     O3249   2.026       .  S
Cu1402     O3256   2.069       .  S
C1403      C1431   1.495       .  S
C1404      C1432   1.497       .  S
C1405      C1598   1.467   1_554  S
C1406      C1728   1.486       .  S
O1407     Cu1415   2.047       .  S
O1407      C1417   1.282       .  A
O1408     Cu3271   2.048   1_455  S
O1408      C1418   1.282       .  A
O1409     Cu1415   2.026       .  S
O1409      C1419   1.278       .  A
O1410     Cu1415   2.025       .  S
O1410      C1420   1.279       .  A
O1411     Cu1416   2.028       .  S
O1411      C1420   1.279       .  A
O1412     Cu1416   2.024       .  S
O1412      C1419   1.281       .  A
O1413     Cu3272   2.042   1_455  S
O1413      C1418   1.281       .  A
O1414     Cu1416   2.041       .  S
O1414      C1417   1.281       .  A
Cu1415     O3264   2.047       .  S
Cu1415    Cu1416   2.369       .  S
Cu1416     O3269   2.048       .  S
C1417      C1445   1.494       .  S
C1418      C1446   1.495       .  S
C1419      C1610   1.480   1_554  S
C1420      C1718   1.479       .  S
O1421     Cu1429   2.025       .  S
O1421      C1431   1.276       .  A
O1422     Cu1429   2.026       .  S
O1422      C1432   1.276       .  A
O1423     Cu1429   2.051       .  S
O1423      C1433   1.286       .  A
O1424     Cu1429   2.062       .  S
O1424      C1434   1.286       .  A
O1425     Cu1430   1.973       .  S
O1426     Cu1430   1.981       .  S
O1427     Cu1430   2.073       .  S
O1428     Cu1430   2.071       .  S
C1433      C1624   1.468   1_554  S
C1434      C1708   1.488       .  S
O1435     Cu1443   2.044       .  S
O1435      C1445   1.282       .  A
O1436     Cu1443   2.049       .  S
O1436      C1446   1.282       .  A
O1437     Cu1443   1.996       .  S
O1437      C1447   1.276       .  A
O1438     Cu1443   1.999       .  S
O1438      C1448   1.279       .  A
O1439     Cu1444   2.025       .  S
O1439      C1448   1.277       .  A
O1440     Cu1444   2.009       .  S
O1440      C1447   1.279       .  A
O1441     Cu1444   2.041       .  S
O1441      C1446   1.281       .  A
O1442     Cu1444   2.042       .  S
O1442      C1445   1.282       .  A
Cu1443    Cu1444   2.370       .  S
C1447      C1698   1.477       .  S
C1448      C1638   1.471   1_554  S
N1449      C1454   1.342       .  A
N1449      H1481   1.043       .  S
N1450      C1458   1.336       .  A
N1451      C1456   1.349       .  A
N1451      C1455   1.344       .  A
N1451      H1482   1.038       .  S
N1452      C1459   1.346       .  A
N1452      C1460   1.353       .  A
C1453      C1461   1.383       .  A
C1453      C1469   1.437       .  A
C1454      C1470   1.410       .  A
C1455      C1463   1.387       .  A
C1455      C1472   1.410       .  A
C1456      C3327   1.412       .  A
C1456      C1464   1.385       .  A
C1457      C3325   1.407       .  A
C1457      C1465   1.384       .  A
C1458      C1472   1.400       .  A
C1459      C1467   1.385       .  A
C1459      C1470   1.411       .  A
C1460      C1468   1.380       .  A
C1460      C1471   1.407       .  A
C1461      C1462   1.377       .  A
C1461      H1473   1.074       .  S
C1462      H1474   1.080       .  S
C1463      C1464   1.379       .  A
C1463      H1475   1.083       .  S
C1464      H1476   1.081       .  S
C1465      C1466   1.386       .  A
C1465      H1477   1.082       .  S
C1466      H1478   1.075       .  S
C1467      C1468   1.369       .  A
C1467      H1479   1.080       .  S
C1468      H1480   1.083       .  S
C1469      C3313   1.421       .  A
C1470      C1537   1.520       .  S
C1471      C3312   1.412       .  A
C1471      C1731   1.489       .  S
C1472      C1539   1.531       .  S
N1483      C1488   1.343       .  A
N1483      C1487   1.356       .  A
N1483      H1515   1.044       .  S
N1484      C1491   1.348       .  A
N1484      C1492   1.342   1_655  A
N1485      C1490   1.344   1_455  A
N1485      C1489   1.347       .  A
N1485      H1516   1.045       .  S
N1486      C1493   1.346       .  A
N1486      C1494   1.356       .  A
C1487      C1495   1.377       .  A
C1487      C1503   1.402       .  A
C1488      C1504   1.417       .  A
C1488      C1496   1.396       .  A
C1489      C1497   1.386   1_455  A
C1489      C1506   1.414       .  A
C1490      C3361   1.396       .  A
C1490      C1498   1.387       .  A
C1491      C3359   1.421       .  A
C1491      C1499   1.392   1_655  A
C1492      C1506   1.403       .  A
C1492      C1500   1.386       .  A
C1493      C1501   1.392       .  A
C1493      C1504   1.414       .  A
C1494      C1502   1.375       .  A
C1494      C1505   1.411       .  A
C1495      C1496   1.371       .  A
C1495      H1507   1.080       .  S
C1496      H1508   1.081       .  S
C1497      C1498   1.386       .  A
C1497      H1509   1.082       .  S
C1498      H1510   1.082       .  S
C1499      C1500   1.377       .  A
C1499      H1511   1.077       .  S
C1500      H1512   1.083       .  S
C1501      C1502   1.379       .  A
C1501      H1513   1.082       .  S
C1502      H1514   1.078       .  S
C1503      C3347   1.415       .  A
C1504      C1572   1.490       .  S
C1505      C3346   1.395       .  A
C1505      C1721   1.500       .  S
C1506      C1574   1.499       .  S
N1517      C1522   1.350       .  A
N1518      C1525   1.336       .  A
N1518      C1526   1.340       .  A
N1519      C1524   1.344       .  A
N1519      C1523   1.357       .  A
N1519      H1550   1.044       .  S
N1520      C1528   1.346       .  A
C1521      C1537   1.410       .  A
C1522      C1538   1.414       .  A
C1522      C1530   1.379       .  A
C1523      C1531   1.382       .  A
C1523      C1540   1.407       .  A
C1524      C1539   1.412       .  A
C1524      C1532   1.390       .  A
C1525      C1537   1.405       .  A
C1525      C1533   1.390       .  A
C1526      C1540   1.401       .  A
C1526      C1534   1.385       .  A
C1527      C1535   1.377       .  A
C1527      C1538   1.415       .  A
C1528      C1539   1.420       .  A
C1529      C1530   1.380       .  A
C1529      H1541   1.080       .  S
C1530      H1542   1.078       .  S
C1531      C1532   1.380       .  A
C1531      H1543   1.082       .  S
C1532      H1544   1.082       .  S
C1533      C1534   1.383       .  A
C1533      H1545   1.082       .  S
C1534      H1546   1.082       .  S
C1535      C1536   1.368   1_565  A
C1535      H1547   1.078       .  S
C1536      H1548   1.066       .  S
C1540      C1711   1.481       .  S
N1551      C1556   1.349       .  A
N1551      C1555   1.358       .  A
N1551      H1583   1.039       .  S
N1552      C1559   1.355       .  A
N1552      C1560   1.351       .  A
N1553      C1558   1.348       .  A
N1553      C1557   1.346       .  A
N1553      H1584   1.044       .  S
N1554      C1561   1.346       .  A
N1554      C1562   1.355       .  A
C1555      C1563   1.387       .  A
C1555      C1571   1.424       .  A
C1556      C1572   1.423       .  A
C1556      C1564   1.391       .  A
C1557      C1565   1.389       .  A
C1557      C1574   1.408       .  A
C1558      C1573   1.402       .  A
C1558      C1566   1.384       .  A
C1559      C1571   1.421       .  A
C1559      C1567   1.385       .  A
C1560      C1574   1.417       .  A
C1560      C1568   1.384       .  A
C1561      C1569   1.391       .  A
C1561      C1572   1.420       .  A
C1562      C1570   1.377       .  A
C1562      C1573   1.396       .  A
C1563      C1564   1.373       .  A
C1563      H1575   1.081       .  S
C1564      H1576   1.083       .  S
C1565      C1566   1.373       .  A
C1565      H1577   1.082       .  S
C1566      H1578   1.080       .  S
C1567      C1568   1.369       .  A
C1567      H1579   1.077       .  S
C1568      H1580   1.079       .  S
C1569      C1570   1.358       .  A
C1569      H1581   1.075       .  S
C1570      H1582   1.083       .  S
C1573      C1701   1.481       .  S
O1585     Cu3449   2.072       .  S
O1586     Cu1593   2.064       .  S
O1587     Cu1593   1.979       .  S
O1588     Cu1593   1.988       .  S
O1589     Cu1594   2.069       .  S
O1589      C1598   1.289       .  A
O1590     Cu1594   2.082       .  S
O1590      C1597   1.289       .  A
O1591     Cu1594   2.014       .  S
O1591      C1596   1.274       .  A
O1592     Cu3450   2.032       .  S
O1592      C1595   1.277       .  A
Cu1593     O3441   2.071       .  S
Cu1594     O3448   2.017       .  S
C1595      C1625   1.499       .  S
C1596      C1626   1.496       .  S
C1597      C1811   1.490       .  S
O1599     Cu1607   2.052       .  S
O1599      C1609   1.285       .  A
O1600     Cu1607   2.045       .  S
O1600      C1610   1.283       .  A
O1601     Cu3463   2.034   1_455  S
O1601      C1611   1.279       .  A
O1602     Cu1607   2.037       .  S
O1602      C1612   1.279       .  A
O1603     Cu1608   2.063       .  S
O1603      C1612   1.285       .  A
O1604     Cu3464   2.059   1_455  S
O1604      C1611   1.285       .  A
O1605     Cu1608   2.005       .  S
O1605      C1610   1.276       .  A
O1606     Cu1608   2.002       .  S
O1606      C1609   1.276       .  A
Cu1607     O3457   2.038       .  S
Cu1607    Cu1608   2.366       .  S
Cu1608     O3460   2.057       .  S
C1609      C1801   1.496       .  S
C1611      C1640   1.496       .  S
C1612      C1639   1.499       .  S
O1613     Cu1621   2.076       .  S
O1614     Cu1621   2.060       .  S
O1615     Cu1621   2.016       .  S
O1616     Cu1621   2.012       .  S
O1617     Cu1622   2.064       .  S
O1617      C1626   1.288       .  A
O1618     Cu1622   2.067       .  S
O1618      C1625   1.287       .  A
O1619     Cu1622   1.988       .  S
O1619      C1624   1.271       .  A
O1620     Cu1622   1.983       .  S
O1620      C1623   1.274       .  A
C1623      C1788   1.487       .  S
O1627     Cu1635   1.963       .  S
O1627      C1637   1.271       .  A
O1628     Cu1635   1.964       .  S
O1628      C1638   1.270       .  A
O1629     Cu1635   2.057       .  S
O1629      C1639   1.285       .  A
O1630     Cu1635   2.056       .  S
O1630      C1640   1.285       .  A
O1631     Cu1636   2.039       .  S
O1631      C1640   1.279       .  A
O1632     Cu1636   2.042       .  S
O1632      C1639   1.280       .  A
O1633     Cu1636   2.059       .  S
O1633      C1638   1.285       .  A
O1634     Cu1636   2.070       .  S
O1634      C1637   1.287       .  A
Cu1635    Cu1636   2.366       .  S
C1637      C1781   1.493       .  S
O1641      C1651   1.278       .  A
O1642     Cu1649   2.029       .  S
O1642      C1652   1.276       .  A
O1643     Cu1649   2.060       .  S
O1643      C3509   1.286       .  A
O1644     Cu1649   2.046       .  S
O1644      C1654   1.286       .  A
O1645     Cu1650   1.982       .  S
O1645      C3510   1.270       .  A
O1646     Cu1650   1.972       .  S
O1646      C1653   1.271       .  A
O1647     Cu1650   2.081   1_565  S
O1647      C3508   1.289       .  A
O1648      C3507   1.287       .  A
Cu1649    Cu3506   2.365       .  S
Cu1650    Cu3505   2.368   1_455  S
C1651      C1665   1.504       .  S
C1651      O3504   1.288       .  A
C1652      C1666   1.503       .  S
C1652      O3503   1.289       .  A
C1653      C1848   1.480   1_545  S
C1653      O3499   1.285   1_455  A
C1654      O3501   1.270       .  A
O1655     Cu1663   2.034       .  S
O1655      C3521   1.278       .  A
O1656     Cu1663   2.046       .  S
O1656      C3522   1.279       .  A
O1657     Cu1663   2.067       .  S
O1657      C1667   1.287   1_455  A
O1658     Cu1663   2.051       .  S
O1658      C3524   1.285       .  A
O1659     Cu1664   1.965       .  S
O1659      C1668   1.268       .  A
O1660     Cu1664   1.952       .  S
O1660      C3523   1.268       .  A
O1661     Cu1664   2.069       .  S
O1661      C1666   1.288       .  A
O1662     Cu1664   2.075       .  S
O1662      C1665   1.288       .  A
Cu1663    Cu3520   2.365   1_455  S
Cu1664    Cu3519   2.365       .  S
C1665      O3511   1.278       .  A
C1666      O3512   1.278       .  A
C1667      C1841   1.497       .  S
C1667      O3516   1.271       .  A
C1668      O3514   1.286       .  A
O1669     Cu1677   1.960       .  S
O1669      C1679   1.269       .  A
O1670     Cu1677   1.970       .  S
O1671     Cu1677   2.067       .  S
O1671      C1681   1.285       .  A
O1672      C1682   1.284       .  A
O1673      C1682   1.282       .  A
O1674     Cu1678   2.047       .  S
O1674      C1681   1.280       .  A
O1675     Cu1678   2.082       .  S
O1676     Cu1678   2.077       .  S
O1676      C1679   1.288       .  A
Cu1677    Cu1678   2.362       .  S
C1679      C1828   1.492       .  S
C1681      C1693   1.504       .  S
C1682      C1694   1.504       .  S
O1683     Cu1691   2.051       .  S
O1683      C1693   1.282       .  A
O1684     Cu1691   2.053       .  S
O1684      C1694   1.282       .  A
O1685     Cu1691   2.032       .  S
O1685      C1695   1.282       .  A
O1686     Cu1691   2.025       .  S
O1686      C1696   1.278       .  A
O1687     Cu1692   2.000       .  S
O1687      C1696   1.278       .  A
O1688     Cu1692   2.006       .  S
O1688      C1695   1.277       .  A
O1689     Cu1692   2.061       .  S
O1689      C1694   1.284       .  A
O1690     Cu1692   2.060       .  S
O1690      C1693   1.284       .  A
Cu1691    Cu1692   2.366       .  S
C1695      C1821   1.491       .  S
C1697      C1698   1.403       .  A
C1697      C1702   1.391       .  A
C1697      H1704   1.083       .  S
C1698      C1699   1.410       .  A
C1699      C1700   1.399       .  A
C1699      F1706   1.356       .  S
C1700      C1701   1.403       .  A
C1700      H1705   1.082       .  S
C1701      C1702   1.401       .  A
C1702      F1703   1.353       .  S
C1707      C1708   1.404       .  A
C1707      C1712   1.405       .  A
C1707      H1714   1.083       .  S
C1709      C1710   1.396       .  A
C1709      F1716   1.357       .  S
C1710      H1715   1.083       .  S
C1711      C1712   1.409       .  A
C1712      F1713   1.358       .  S
C1717      C1718   1.402       .  A
C1717      C1722   1.401       .  A
C1717      H1724   1.084       .  S
C1718      C1719   1.405       .  A
C1719      C1720   1.406       .  A
C1719      F3582   1.358       .  S
C1720      C1721   1.412       .  A
C1720      H3581   1.081       .  S
C1721      C1722   1.409       .  A
C1722      F1723   1.357       .  S
H1725      C3576   1.079       .  S
F1726      C3575   1.357       .  S
C1727      C3584   1.401       .  A
C1727      C1732   1.395       .  A
C1728      C3583   1.404       .  A
C1728      C1729   1.415       .  A
C1729      C1730   1.399       .  A
C1729      F1736   1.357       .  S
C1730      C1731   1.399       .  A
C1730      H1735   1.083       .  S
C1731      C3588   1.409       .  A
C1732      C3587   1.409       .  A
C1737      C1738   1.406       .  A
C1737      C1742   1.403       .  A
C1737      H1744   1.084       .  S
C1738      C1739   1.396       .  A
C1739      C1740   1.391       .  A
C1739      F1746   1.358       .  S
C1740      C1741   1.410       .  A
C1740      H1745   1.083       .  S
C1741      C1742   1.409       .  A
C1742      F1743   1.357       .  S
C1747      C1748   1.398       .  A
C1747      C1752   1.400       .  A
C1747      H1754   1.084       .  S
C1749      C1750   1.412       .  A
C1749      F1756   1.357       .  S
C1750      H1755   1.083       .  S
C1751      C1752   1.418       .  A
C1752      F1753   1.357       .  S
C1757      C1758   1.401       .  A
C1757      C1762   1.404       .  A
C1757      H3620   1.082       .  S
C1758      C1759   1.412       .  A
C1759      C1760   1.399       .  A
C1759      F1766   1.358       .  S
C1760      C1761   1.402       .  A
C1760      H1765   1.083       .  S
C1761      C1762   1.418       .  A
C1762      F3619   1.356       .  S
F1763      C3618   1.356       .  S
H1764      C3613   1.079       .  S
C1767      C1772   1.397       .  A
C1767      H3630   1.083       .  S
C1768      C1769   1.421       .  A
C1769      C1770   1.402       .  A
C1769      F1776   1.357       .  S
C1770      C1771   1.397       .  A
C1770      H1775   1.082       .  S
C1772      F3629   1.358       .  S
F1773      C3628   1.359       .  S
H1774      C3623   1.083       .  S
C1777      C1778   1.410       .  A
C1777      C1782   1.406       .  A
C1777      H1784   1.083       .  S
C1778      C1779   1.396       .  A
C1779      C1780   1.396       .  A
C1779      F1786   1.357       .  S
C1780      C1781   1.415       .  A
C1780      H1785   1.083       .  S
C1781      C1782   1.408       .  A
C1782      F1783   1.357       .  S
C1787      C1788   1.409       .  A
C1787      C1792   1.395       .  A
C1787      H1794   1.083       .  S
C1788      C1789   1.408       .  A
C1789      C1790   1.405       .  A
C1789      F1796   1.357       .  S
C1790      C1791   1.407       .  A
C1790      H1795   1.083       .  S
C1791      C1792   1.396       .  A
C1792      F1793   1.345       .  S
C1797      C3654   1.407       .  A
C1797      C1802   1.404       .  A
C1797      H1804   1.084       .  S
C1798      C3653   1.409       .  A
C1798      C1799   1.406       .  A
C1799      C1800   1.404       .  A
C1799      F1806   1.357       .  S
C1800      C1801   1.412       .  A
C1800      H1805   1.083       .  S
C1801      C3658   1.408       .  A
C1802      C3657   1.409       .  A
C1802      F1803   1.357       .  S
C1807      C1808   1.392       .  A
C1807      C1812   1.393       .  A
C1807      H1814   1.084       .  S
C1808      C3665   1.414       .  A
C1809      C3664   1.406       .  A
C1809      C1810   1.394       .  A
C1809      F1816   1.350       .  S
C1810      C3667   1.400       .  A
C1810      H1815   1.083       .  S
C1811      C3666   1.402       .  A
C1811      C1812   1.422       .  A
C1817      C1818   1.404       .  A
C1817      C1822   1.400       .  A
C1817      H1824   1.084       .  S
C1818      C1819   1.403       .  A
C1819      C1820   1.403       .  A
C1819      F1826   1.354       .  S
C1820      C1821   1.411       .  A
C1820      H1825   1.082       .  S
C1821      C1822   1.409       .  A
C1822      F1823   1.357       .  S
C1827      C1828   1.404       .  A
C1827      C1832   1.405       .  A
C1827      H1834   1.082       .  S
C1829      C1830   1.396       .  A
C1829      F1836   1.357   1_545  S
C1830      H1835   1.084       .  S
C1831      C1832   1.412       .  A
C1832      F1833   1.358       .  S
C1837      C3694   1.394       .  A
C1837      C1842   1.392       .  A
C1837      H1844   1.084       .  S
C1838      C3693   1.397       .  A
C1838      C1839   1.410   1_655  A
C1839      C1840   1.406       .  A
C1839      F1846   1.356       .  S
C1840      C1841   1.406   1_455  A
C1840      H1845   1.082       .  S
C1841      C3698   1.418       .  A
C1842      C3697   1.419       .  A
C1842      F1843   1.357       .  S
C1847      C1852   1.400       .  A
C1847      H1854   1.083       .  S
C1848      C3705   1.400   1_465  A
C1849      C3704   1.408       .  A
C1849      C1850   1.405       .  A
C1849      F1856   1.357       .  S
C1850      C3707   1.409       .  A
C1850      H1855   1.084       .  S
C1851      C3706   1.414       .  A
C1852      F1853   1.356       .  S
N1857      C1862   1.355       .  A
N1857      C1861   1.341   1_565  A
N1857      H1889   1.041       .  S
N1858      C1865   1.343   1_565  A
N1858      C1866   1.340       .  A
N1859      C1864   1.350       .  A
N1859      C1863   1.362       .  A
N1859      H1890   1.040       .  S
N1860      C1867   1.354       .  A
N1860      C1868   1.346       .  A
C1861      C1869   1.389       .  A
C1862      C1878   1.414       .  A
C1862      C1870   1.386   1_565  A
C1863      C1871   1.381       .  A
C1863      C1880   1.418       .  A
C1864      C1872   1.392       .  A
C1865      C1877   1.396       .  A
C1865      C1873   1.382       .  A
C1866      C2808   1.414       .  A
C1866      C1874   1.391   1_565  A
C1867      C1875   1.374       .  A
C1867      C2806   1.402       .  A
C1868      C1876   1.387       .  A
C1868      C1879   1.412       .  A
C1869      C1870   1.382       .  A
C1869      H1881   1.082       .  S
C1870      H1882   1.082       .  S
C1871      C1872   1.378       .  A
C1871      H1883   1.082       .  S
C1872      H1884   1.080       .  S
C1873      C1874   1.381       .  A
C1873      H1885   1.082       .  S
C1874      H1886   1.081       .  S
C1875      C1876   1.377       .  A
C1875      H1887   1.080       .  S
C1876      H1888   1.082       .  S
C1878      C2795   1.404       .  A
C1878      C2014   1.491       .  S
C1879      C1913   1.527   1_455  S
C1880      C2794   1.406       .  A
C1880      C2779   1.490       .  S
N1891      C1896   1.348       .  A
N1891      C1895   1.338       .  A
N1891      H1923   1.031       .  S
N1892      C1899   1.338       .  A
N1892      C1900   1.341       .  A
N1893      C1898   1.339       .  A
N1893      C1897   1.354       .  A
N1894      C1901   1.351       .  A
N1894      C1902   1.345       .  A
C1895      C1903   1.382       .  A
C1895      C1911   1.398       .  A
C1896      C1912   1.412       .  A
C1896      C1904   1.388       .  A
C1897      C1905   1.387       .  A
C1897      C1914   1.411       .  A
C1898      C1906   1.386       .  A
C1899      C1907   1.384       .  A
C1900      C1914   1.408       .  A
C1900      C1908   1.384       .  A
C1901      C1909   1.385       .  A
C1901      C1912   1.422       .  A
C1902      C1910   1.389       .  A
C1902      C1913   1.426       .  A
C1903      C1904   1.377       .  A
C1903      H1915   1.081       .  S
C1904      H1916   1.082       .  S
C1905      C1906   1.381       .  A
C1905      H1917   1.082       .  S
C1906      H1918   1.081       .  S
C1907      C1908   1.387       .  A
C1907      H1919   1.076       .  S
C1908      H1920   1.082       .  S
C1909      C1910   1.383       .  A
C1909      H1921   1.082       .  S
C1910      H1922   1.080       .  S
C1912      C2047   1.493       .  S
C1914      C2766   1.484       .  S
N1925      C1930   1.346       .  A
N1925      C1929   1.356       .  A
N1925      H1957   1.042       .  S
N1926      C1933   1.348       .  A
N1926      C1934   1.347       .  A
N1927      C1932   1.349       .  A
N1927      C1931   1.339       .  A
N1927      H1958   1.040       .  S
N1928      C1935   1.344       .  A
N1928      C1936   1.352       .  A
C1929      C1937   1.382       .  A
C1929      C1945   1.413       .  A
C1930      C1946   1.413       .  A
C1930      C1938   1.387       .  A
C1931      C1939   1.384       .  A
C1931      C1948   1.395       .  A
C1932      C2875   1.406       .  A
C1932      C1940   1.389       .  A
C1933      C2873   1.414       .  A
C1933      C1941   1.386       .  A
C1934      C1948   1.419       .  A
C1934      C1942   1.388       .  A
C1935      C1943   1.388       .  A
C1935      C1946   1.414       .  A
C1936      C1944   1.381       .  A
C1936      C1947   1.408       .  A
C1937      C1938   1.377       .  A
C1937      H1949   1.081       .  S
C1938      H1950   1.082       .  S
C1939      C1940   1.378       .  A
C1939      H1951   1.082       .  S
C1940      H1952   1.082       .  S
C1941      C1942   1.381       .  A
C1941      H1953   1.082       .  S
C1942      H1954   1.080       .  S
C1943      C1944   1.376       .  A
C1943      H1955   1.081       .  S
C1944      H1956   1.082       .  S
C1945      C2861   1.416   1_545  A
C1945      C2082   1.499       .  S
C1946      C1980   1.528       .  S
C1947      C2860   1.417   1_545  A
C1947      C2759   1.488       .  S
C1948      C1982   1.519       .  S
N1959      C1964   1.348       .  A
N1959      C1963   1.351       .  A
N1959      H1991   1.036       .  S
N1960      C1967   1.352       .  A
N1960      C1968   1.346       .  A
N1961      C1966   1.357       .  A
N1961      C1965   1.347       .  A
N1961      H1992   1.042       .  S
N1962      C1969   1.340       .  A
N1962      C1970   1.341       .  A
C1963      C1971   1.389       .  A
C1963      C1979   1.421       .  A
C1964      C1980   1.420       .  A
C1964      C1972   1.387       .  A
C1965      C1973   1.391       .  A
C1965      C1982   1.419       .  A
C1966      C1981   1.412       .  A
C1966      C1974   1.382       .  A
C1967      C1979   1.411       .  A
C1967      C1975   1.377       .  A
C1968      C1982   1.405       .  A
C1968      C1976   1.378       .  A
C1969      C1977   1.388       .  A
C1969      C1980   1.409       .  A
C1970      C1978   1.385       .  A
C1970      C1981   1.405       .  A
C1971      C1972   1.380       .  A
C1971      H1983   1.081       .  S
C1972      H1984   1.082       .  S
C1973      C1974   1.376       .  A
C1973      H1985   1.081       .  S
C1974      H1986   1.081       .  S
C1975      C1976   1.371       .  A
C1975      H1987   1.078       .  S
C1976      H1988   1.081       .  S
C1977      C1978   1.381       .  A
C1977      H1989   1.082       .  S
C1978      H1990   1.082       .  S
C1979      C2115   1.505       .  S
C1981      C2746   1.482       .  S
N1993      C1998   1.353       .  A
N1993      C1997   1.345       .  A
N1993      H2025   1.045       .  S
N1994      C2001   1.345       .  A
N1994      C2002   1.351       .  A
N1995      C2000   1.344   1_455  A
N1995      C1999   1.354       .  A
N1995      H2026   1.037       .  S
N1996      C2003   1.348       .  A
N1996      C2004   1.343   1_455  A
C1997      C2005   1.385       .  A
C1997      C2013   1.402       .  A
C1998      C2006   1.376       .  A
C1999      C2007   1.388   1_455  A
C1999      C2016   1.419       .  A
C2000      C2015   1.412       .  A
C2000      C2008   1.386       .  A
C2001      C2013   1.414       .  A
C2001      C2009   1.389       .  A
C2002      C2010   1.383       .  A
C2003      C2011   1.381   1_455  A
C2003      C2014   1.407       .  A
C2004      C2012   1.388       .  A
C2004      C2015   1.409       .  A
C2005      C2006   1.377       .  A
C2005      H2017   1.082       .  S
C2006      H2018   1.079       .  S
C2007      C2008   1.381       .  A
C2007      H2019   1.082       .  S
C2008      H2020   1.080       .  S
C2009      C2010   1.376       .  A
C2009      H2021   1.082       .  S
C2010      H2022   1.082       .  S
C2011      C2012   1.376       .  A
C2011      H2023   1.082       .  S
C2012      H2024   1.076       .  S
C2013      C2081   1.525   1_565  S
C2015      C2083   1.524       .  S
C2016      C2736   1.498       .  S
N2027      C2032   1.345       .  A
N2027      C2031   1.353       .  A
N2027      H2059   1.038       .  S
N2028      C2035   1.352       .  A
N2028      C2036   1.342       .  A
N2029      C2034   1.358       .  A
N2029      C2033   1.348       .  A
N2029      H2060   1.042       .  S
N2030      C2037   1.343       .  A
N2030      C2038   1.346       .  A
C2031      C2039   1.387       .  A
C2032      C2048   1.414       .  A
C2032      C2040   1.388       .  A
C2033      C2041   1.390       .  A
C2033      C2050   1.419       .  A
C2034      C2049   1.413       .  A
C2034      C2042   1.382       .  A
C2035      C2047   1.403       .  A
C2035      C2043   1.379       .  A
C2036      C2050   1.408       .  A
C2036      C2044   1.387       .  A
C2037      C2045   1.387       .  A
C2037      C2048   1.408       .  A
C2038      C2046   1.386       .  A
C2039      C2040   1.383       .  A
C2039      H2051   1.079       .  S
C2040      H2052   1.083       .  S
C2041      C2042   1.379       .  A
C2041      H2053   1.081       .  S
C2042      H2054   1.082       .  S
C2043      C2044   1.373       .  A
C2043      H2055   1.081       .  S
C2044      H2056   1.081       .  S
C2045      C2046   1.378       .  A
C2045      H2057   1.080       .  S
C2046      H2058   1.081       .  S
C2048      C2116   1.530       .  S
C2049      C2726   1.494       .  S
C2050      C2118   1.526       .  S
N2061      C2066   1.352       .  A
N2061      C2065   1.350       .  A
N2061      H2093   1.037       .  S
N2062      C2069   1.341       .  A
N2062      C2070   1.342       .  A
N2063      C2068   1.345       .  A
N2063      C2067   1.354       .  A
N2063      H2094   1.042       .  S
N2064      C2071   1.352   1_565  A
N2064      C2072   1.343       .  A
C2065      C2073   1.390       .  A
C2065      C2081   1.426       .  A
C2066      C2082   1.419       .  A
C2066      C2074   1.386       .  A
C2067      C2075   1.383       .  A
C2067      C2084   1.408   1_565  A
C2068      C2083   1.408       .  A
C2068      C2076   1.387       .  A
C2069      C2081   1.408       .  A
C2069      C2077   1.385       .  A
C2070      C2084   1.406       .  A
C2070      C2078   1.387       .  A
C2071      C2079   1.382       .  A
C2071      C2082   1.406       .  A
C2072      C2080   1.386       .  A
C2072      C2083   1.409       .  A
C2073      C2074   1.379       .  A
C2073      H2085   1.081       .  S
C2074      H2086   1.081       .  S
C2075      C2076   1.377       .  A
C2075      H2087   1.082   1_565  S
C2076      H2088   1.080       .  S
C2077      C2078   1.375       .  A
C2077      H2089   1.078       .  S
C2078      H2090   1.081       .  S
C2079      C2080   1.374   1_545  A
C2079      H2091   1.080       .  S
C2080      H2092   1.080       .  S
C2084      C2719   1.478   1_545  S
N2095      C2100   1.346       .  A
N2095      C2099   1.357       .  A
N2095      H2127   1.043       .  S
N2096      C2103   1.345       .  A
N2096      C2104   1.342       .  A
N2097      C2102   1.349       .  A
N2097      C2101   1.346       .  A
N2097      H2128   1.038       .  S
N2098      C2105   1.347       .  A
N2098      C2106   1.352       .  A
C2099      C2107   1.383       .  A
C2099      C2115   1.414       .  A
C2100      C2116   1.412       .  A
C2100      C2108   1.385       .  A
C2101      C2109   1.388       .  A
C2101      C2118   1.410       .  A
C2102      C2117   1.412       .  A
C2102      C2110   1.388       .  A
C2103      C2115   1.418       .  A
C2103      C2111   1.389       .  A
C2104      C2118   1.408       .  A
C2104      C2112   1.386       .  A
C2105      C2113   1.387       .  A
C2105      C2116   1.412       .  A
C2106      C2114   1.381       .  A
C2106      C2117   1.405       .  A
C2107      C2108   1.373       .  A
C2107      H2119   1.077       .  S
C2108      H2120   1.079       .  S
C2109      C2110   1.380       .  A
C2109      H2121   1.083       .  S
C2110      H2122   1.082       .  S
C2111      C2112   1.380       .  A
C2111      H2123   1.079       .  S
C2112      H2124   1.083       .  S
C2113      C2114   1.373       .  A
C2113      H2125   1.080       .  S
C2114      H2126   1.082       .  S
C2117      C2706   1.484       .  S
N2129      C2134   1.359       .  A
N2129      C2133   1.348       .  A
N2129      H2161   1.044       .  S
N2130      C2137   1.343       .  A
N2130      C2138   1.356       .  A
N2131      C2136   1.342       .  A
N2131      C2135   1.348   1_455  A
N2131      H2162   1.045       .  S
N2132      C2139   1.352       .  A
N2132      C2140   1.351       .  A
C2133      C2141   1.395       .  A
C2133      C2149   1.425       .  A
C2134      C3078   1.388   1_655  A
C2134      C2142   1.368       .  A
C2135      C2143   1.372       .  A
C2135      C2152   1.376       .  A
C2136      C2151   1.411       .  A
C2136      C2144   1.398   1_455  A
C2137      C2149   1.416       .  A
C2137      C2145   1.398       .  A
C2138      C3080   1.404       .  A
C2138      C2146   1.377       .  A
C2139      C2147   1.380       .  A
C2139      C2150   1.412       .  A
C2140      C2148   1.390       .  A
C2140      C2151   1.413       .  A
C2141      C2142   1.357       .  A
C2141      H2153   1.072       .  S
C2142      H2154   1.081   1_655  S
C2143      C2144   1.361       .  A
C2143      H2155   1.082       .  S
C2144      H2156   1.080       .  S
C2145      C2146   1.378       .  A
C2145      H2157   1.083       .  S
C2146      H2158   1.082       .  S
C2147      C2148   1.376       .  A
C2147      H2159   1.073       .  S
C2148      H2160   1.083       .  S
C2149      C2186   1.487       .  S
C2150      C3062   1.397   1_455  A
C2150      C2397   1.506       .  S
C2151      C2184   1.493       .  S
C2152      C3066   1.403       .  A
C2152      C2699   1.490       .  S
N2163      C2168   1.355   1_655  A
N2163      C2167   1.360       .  A
N2163      H2195   1.043   1_655  S
N2164      C2171   1.352       .  A
N2164      C2172   1.346       .  A
N2165      C2170   1.351       .  A
N2165      C2169   1.344       .  A
N2165      H2196   1.045       .  S
N2166      C2173   1.343       .  A
N2166      C2174   1.354       .  A
C2167      C2175   1.362       .  A
C2167      C2183   1.400       .  A
C2168      C2184   1.423       .  A
C2168      C2176   1.389   1_455  A
C2169      C2177   1.396       .  A
C2169      C2186   1.412       .  A
C2170      C2185   1.380   1_655  A
C2170      C2178   1.372   1_655  A
C2171      C2183   1.420       .  A
C2171      C2179   1.390       .  A
C2172      C2186   1.408       .  A
C2172      C2180   1.387       .  A
C2173      C2181   1.395       .  A
C2173      C2184   1.416       .  A
C2174      C2182   1.379       .  A
C2174      C2185   1.403       .  A
C2175      C2176   1.344       .  A
C2175      H2187   1.063       .  S
C2176      H2188   1.068       .  S
C2177      C2178   1.361   1_655  A
C2177      H2189   1.079       .  S
C2178      H2190   1.082       .  S
C2179      C2180   1.372       .  A
C2179      H2191   1.074       .  S
C2180      H2192   1.083       .  S
C2181      C2182   1.376       .  A
C2181      H2193   1.083       .  S
C2182      H2194   1.081       .  S
C2183      C2431   1.521       .  S
C2185      C2686   1.492       .  S
N2197      C2202   1.336       .  A
N2197      C2201   1.346       .  A
N2197      H2229   1.042   1_545  S
N2198      C2205   1.348       .  A
N2198      C2206   1.339       .  A
N2199      C2204   1.354       .  A
N2199      C2203   1.342       .  A
N2199      H2230   1.038       .  S
N2200      C2207   1.344       .  A
N2200      C2208   1.345       .  A
C2201      C2209   1.389       .  A
C2201      C3145   1.405   1_545  A
C2202      C2218   1.390       .  A
C2202      C2210   1.384       .  A
C2203      C2211   1.388       .  A
C2203      C2220   1.410       .  A
C2204      C2219   1.420       .  A
C2204      C2212   1.387       .  A
C2205      C2217   1.406       .  A
C2205      C2213   1.379       .  A
C2206      C2220   1.410       .  A
C2206      C2214   1.388       .  A
C2207      C2215   1.383       .  A
C2207      C2218   1.406       .  A
C2208      C2216   1.388       .  A
C2208      C3147   1.413   1_545  A
C2209      C2210   1.384       .  A
C2209      H2221   1.082       .  S
C2210      H2222   1.082       .  S
C2211      C2212   1.389       .  A
C2211      H2223   1.083       .  S
C2212      H2224   1.082       .  S
C2213      C2214   1.375       .  A
C2213      H2225   1.082       .  S
C2214      H2226   1.080       .  S
C2215      C2216   1.377       .  A
C2215      H2227   1.080       .  S
C2216      H2228   1.082       .  S
C2217      C3129   1.413       .  A
C2217      C2466   1.497       .  S
C2218      C2253   1.518       .  S
C2219      C3136   1.413       .  A
C2219      C2676   1.491       .  S
C2220      C2251   1.519       .  S
N2231      C2236   1.353       .  A
N2231      C2235   1.339       .  A
N2231      H2263   1.043       .  S
N2232      C2239   1.338       .  A
N2232      C2240   1.344       .  A
N2233      C2238   1.337       .  A
N2233      C2237   1.352       .  A
N2233      H2264   1.041       .  S
N2234      C2241   1.351       .  A
N2234      C2242   1.341       .  A
C2235      C2243   1.383       .  A
C2235      C2251   1.399       .  A
C2236      C2252   1.414       .  A
C2236      C2244   1.389       .  A
C2237      C2245   1.389       .  A
C2237      C2254   1.415       .  A
C2238      C2253   1.395       .  A
C2238      C2246   1.383       .  A
C2239      C2251   1.404       .  A
C2239      C2247   1.383       .  A
C2240      C2254   1.411       .  A
C2240      C2248   1.386       .  A
C2241      C2249   1.380       .  A
C2241      C2252   1.414       .  A
C2242      C2250   1.384       .  A
C2242      C2253   1.414       .  A
C2243      C2244   1.386       .  A
C2243      H2255   1.080       .  S
C2244      H2256   1.081       .  S
C2245      C2246   1.385       .  A
C2245      H2257   1.080       .  S
C2246      H2258   1.082       .  S
C2247      C2248   1.377       .  A
C2247      H2259   1.077       .  S
C2248      H2260   1.082       .  S
C2249      C2250   1.376       .  A
C2249      H2261   1.075       .  S
C2250      H2262   1.077       .  S
C2252      C2499   1.506       .  S
C2254      C2666   1.486       .  S
O2265     Cu2273   2.034       .  S
O2266     Cu2273   2.033       .  S
O2267     Cu2273   2.040       .  S
O2268     Cu3201   2.025       .  S
O2269     Cu3202   2.067       .  S
O2269      C2278   1.287       .  A
O2270     Cu2274   2.085       .  S
O2270      C2277   1.289       .  A
O2271     Cu2274   1.992       .  S
O2271      C2276   1.272       .  A
O2272     Cu2274   1.989       .  S
O2272      C2275   1.273       .  A
Cu2273     O3196   2.044       .  S
Cu2274     O3197   2.083       .  S
C2275      C2696   1.491       .  S
C2276      C2582   1.470       .  S
C2277      C2292   1.507       .  S
C2278      C2291   1.502       .  S
O2279     Cu2287   2.036       .  S
O2279      C2289   1.285       .  A
O2280     Cu2287   2.041       .  S
O2280      C2290   1.284       .  A
O2281     Cu2287   2.037       .  S
O2281      C2291   1.279       .  A
O2282     Cu2287   2.047       .  S
O2282      C2292   1.279       .  A
O2283     Cu2288   2.073       .  S
O2284     Cu2288   2.075       .  S
O2285     Cu2288   2.002       .  S
O2286     Cu2288   2.000       .  S
C2289      C2596   1.474       .  S
C2290      C2689   1.489   1_655  S
O2293     Cu2301   1.981       .  S
O2293      C2303   1.273       .  A
O2294     Cu2301   1.987       .  S
O2294      C2304   1.273       .  A
O2295     Cu3229   2.057   1_545  S
O2295      C2305   1.284       .  A
O2296     Cu2301   2.070       .  S
O2296      C2306   1.287       .  A
O2297     Cu2302   2.035       .  S
O2297      C2306   1.278       .  A
O2298     Cu3230   2.055   1_545  S
O2298      C2305   1.282       .  A
O2299     Cu2302   2.068       .  S
O2299      C2304   1.287       .  A
O2300     Cu2302   2.051       .  S
O2300      C2303   1.283       .  A
Cu2301     O3223   2.074       .  S
Cu2301    Cu2302   2.364       .  S
Cu2302     O3226   2.043       .  S
C2303      C2608   1.475       .  S
C2304      C2679   1.500       .  S
C2305      C2319   1.504       .  S
C2306      C2320   1.501       .  S
O2307     Cu2315   2.058       .  S
O2307      C2317   1.286       .  A
O2308     Cu2315   2.058       .  S
O2308      C2318   1.283       .  A
O2309     Cu2315   2.047       .  S
O2309      C2319   1.281       .  A
O2310     Cu2315   2.042       .  S
O2310      C2320   1.280       .  A
O2311     Cu2316   2.063       .  S
O2311      C2320   1.285       .  A
O2312     Cu2316   2.064       .  S
O2312      C2319   1.285       .  A
O2313     Cu2316   1.964       .  S
O2313      C2318   1.272       .  A
O2314     Cu2316   1.959       .  S
O2314      C2317   1.271       .  A
Cu2315    Cu2316   2.366       .  S
C2317      C2669   1.485       .  S
C2318      C2624   1.472       .  S
O2321      C3259   1.275       .  A
O2322     Cu2329   2.032   1_655  S
O2322      C3260   1.277       .  A
O2323     Cu2329   2.030       .  S
O2323      C3261   1.284       .  A
O2324     Cu2329   2.038       .  S
O2324      C3262   1.284       .  A
O2325     Cu2330   1.976       .  S
O2325      C2334   1.272       .  A
O2326     Cu2330   1.993       .  S
O2326      C2333   1.271   1_545  A
O2327     Cu2330   2.073   1_655  S
O2327      C2332   1.288   1_545  A
O2328      C2331   1.287   1_545  A
Cu2329    Cu3258   2.369       .  S
Cu2330    Cu3257   2.369   1_545  S
C2331      C2359   1.496       .  S
C2331      O3249   1.276       .  A
C2332      C2360   1.498       .  S
C2332      O3250   1.276       .  A
C2333      C2526   1.474   1_554  S
C2333      O3251   1.286       .  A
C2334      C2656   1.485       .  S
C2334      O3252   1.285   1_545  A
O2335     Cu2343   2.057       .  S
O2335      C2345   1.284       .  A
O2336      C2346   1.284       .  A
O2337     Cu2343   2.019       .  S
O2337      C2347   1.277       .  A
O2338     Cu2343   2.028       .  S
O2338      C2348   1.279       .  A
O2339     Cu2344   2.045       .  S
O2339      C2348   1.281       .  A
O2340     Cu2344   2.034       .  S
O2340      C2347   1.282       .  A
O2341      C2346   1.282       .  A
O2342     Cu2344   2.047       .  S
O2342      C2345   1.282       .  A
Cu2343    Cu2344   2.368       .  S
C2345      C2373   1.501       .  S
C2346      C2374   1.501       .  S
C2347      C2538   1.480   1_554  S
C2348      C2646   1.488       .  S
O2349     Cu2357   2.024       .  S
O2349      C2359   1.276   1_545  A
O2350     Cu2357   2.031       .  S
O2350      C2360   1.277   1_545  A
O2351     Cu2357   2.043       .  S
O2351      C2361   1.285   1_545  A
O2352     Cu2357   2.059       .  S
O2352      C2362   1.286   1_545  A
O2353     Cu2358   1.969       .  S
O2353      C3290   1.270       .  A
O2354     Cu2358   1.972       .  S
O2354      C3289   1.268       .  A
O2355     Cu2358   2.078       .  S
O2355      C3288   1.289       .  A
O2356     Cu2358   2.074       .  S
O2356      C3287   1.289       .  A
Cu2357    Cu3286   2.368   1_545  S
Cu2358    Cu3285   2.365       .  S
C2359      O3284   1.288       .  A
C2360      O3283   1.287       .  A
C2361      C2552   1.468   1_554  S
C2361      O3282   1.270       .  A
C2362      C2636   1.491       .  S
C2362      O3281   1.272       .  A
O2363     Cu2371   2.056       .  S
O2363      C2373   1.283       .  A
O2364     Cu2371   2.057       .  S
O2364      C2374   1.283       .  A
O2365     Cu2371   1.987       .  S
O2365      C2375   1.274       .  A
O2366     Cu2371   1.986       .  S
O2366      C2376   1.277       .  A
O2367     Cu2372   2.033       .  S
O2367      C2376   1.278       .  A
O2368     Cu2372   2.026       .  S
O2368      C2375   1.281       .  A
O2369     Cu2372   2.048       .  S
O2369      C2374   1.282       .  A
O2370     Cu2372   2.052       .  S
O2370      C2373   1.283       .  A
Cu2371    Cu2372   2.368       .  S
C2375      C2626   1.482       .  S
C2376      C2566   1.469   1_554  S
N2377      C2382   1.345       .  A
N2377      C3309   1.360       .  A
N2377      H2409   1.043   1_655  S
N2378      C3313   1.351       .  A
N2378      C2386   1.342       .  A
N2379      C2384   1.353       .  A
N2379      C2383   1.344       .  A
N2379      H2410   1.039       .  S
N2380      C2387   1.346       .  A
N2380      C2388   1.355       .  A
C2381      N3305   1.360       .  A
C2381      C2389   1.386       .  A
C2381      C2397   1.421   1_655  A
C2382      C2398   1.416   1_545  A
C2382      C3318   1.389       .  A
C2383      C2391   1.387       .  A
C2383      C2400   1.411       .  A
C2384      C2392   1.387       .  A
C2385      N3306   1.343       .  A
C2385      C2393   1.385       .  A
C2386      C2400   1.413       .  A
C2386      C3322   1.377       .  A
C2387      C2395   1.387       .  A
C2387      C2398   1.411   1_545  A
C2388      C2396   1.380       .  A
C2388      C2399   1.409   1_655  A
C2389      C2390   1.384       .  A
C2389      H2401   1.080       .  S
C2390      C3310   1.388       .  A
C2390      H2402   1.082       .  S
C2391      C2392   1.380       .  A
C2391      H2403   1.082       .  S
C2392      H2404   1.081       .  S
C2393      C2394   1.384       .  A
C2393      H2405   1.082       .  S
C2394      C3314   1.372       .  A
C2394      H2406   1.073       .  S
C2395      C2396   1.371       .  A
C2395      H2407   1.081       .  S
C2396      H2408   1.082       .  S
C2398      C2465   1.522       .  S
C2399      C2659   1.501       .  S
C2400      C2467   1.534       .  S
N2411      C2416   1.348       .  A
N2411      C2415   1.354       .  A
N2411      H2443   1.044       .  S
N2412      C2419   1.348       .  A
N2412      C2420   1.342       .  A
N2413      C2418   1.343       .  A
N2413      C2417   1.344       .  A
N2413      H2444   1.046       .  S
N2414      C2421   1.349       .  A
N2414      C2422   1.356       .  A
C2415      C2423   1.370       .  A
C2415      C2431   1.398       .  A
C2416      C2432   1.416       .  A
C2416      C2424   1.394       .  A
C2417      C2425   1.384       .  A
C2417      C2434   1.407       .  A
C2418      C2426   1.388       .  A
C2419      C2427   1.395       .  A
C2420      C2434   1.395       .  A
C2420      C2428   1.381       .  A
C2421      C2429   1.392       .  A
C2421      C2432   1.419       .  A
C2422      C2430   1.378       .  A
C2422      C2433   1.415       .  A
C2423      C2424   1.373       .  A
C2423      H2435   1.070       .  S
C2424      H2436   1.082       .  S
C2425      C2426   1.385       .  A
C2425      H2437   1.081       .  S
C2426      H2438   1.083       .  S
C2427      C2428   1.373       .  A
C2427      H2439   1.075       .  S
C2428      H2440   1.083       .  S
C2429      C2430   1.383       .  A
C2429      H2441   1.082       .  S
C2430      H2442   1.078       .  S
C2432      C2500   1.502       .  S
C2433      C2649   1.501       .  S
C2434      C2502   1.502       .  S
N2445      C2450   1.350       .  A
N2445      C3377   1.344       .  A
N2445      H3405   1.038       .  S
N2446      C2453   1.342       .  A
N2446      C2454   1.341       .  A
N2447      C2452   1.353       .  A
N2447      C2451   1.362   1_545  A
N2447      H2478   1.044       .  S
N2448      C3383   1.353   1_545  A
N2448      C2456   1.347       .  A
C2449      N3373   1.343       .  A
C2449      C3385   1.384       .  A
C2449      C2465   1.401       .  A
C2450      C2466   1.403       .  A
C2450      C2458   1.372       .  A
C2451      C2459   1.382       .  A
C2451      C2468   1.418       .  A
C2452      C2467   1.425       .  A
C2452      C2460   1.389   1_545  A
C2453      C2465   1.406       .  A
C2453      C2461   1.383       .  A
C2454      C2468   1.412       .  A
C2454      C2462   1.391       .  A
C2455      N3376   1.354       .  A
C2455      C2463   1.379       .  A
C2455      C2466   1.409       .  A
C2456      C3392   1.383       .  A
C2456      C2467   1.412       .  A
C2457      C3377   1.383       .  A
C2457      C2458   1.375       .  A
C2457      H2469   1.082       .  S
C2458      H2470   1.078       .  S
C2459      C2460   1.378       .  A
C2459      H2471   1.082       .  S
C2460      H2472   1.082       .  S
C2461      C2462   1.377       .  A
C2461      H2473   1.082       .  S
C2462      H2474   1.080       .  S
C2463      C2464   1.376       .  A
C2463      H2475   1.083       .  S
C2464      C3384   1.386       .  A
C2464      H2476   1.073       .  S
C2468      C2639   1.498       .  S
H2477      N3373   1.034       .  S
N2479      C2484   1.352       .  A
N2479      C2483   1.360       .  A
N2479      H2511   1.021       .  S
N2480      C2487   1.353       .  A
N2480      C2488   1.347       .  A
N2481      C2486   1.351       .  A
N2481      C2485   1.350       .  A
N2481      H2512   1.038       .  S
N2482      C2489   1.350       .  A
N2482      C2490   1.355       .  A
C2483      C2491   1.386       .  A
C2483      C2499   1.426       .  A
C2484      C2500   1.429       .  A
C2484      C2492   1.390       .  A
C2485      C2493   1.390       .  A
C2485      C2502   1.413       .  A
C2486      C2501   1.405       .  A
C2486      C2494   1.384       .  A
C2487      C2499   1.414       .  A
C2487      C2495   1.381       .  A
C2488      C2502   1.422       .  A
C2488      C2496   1.387       .  A
C2489      C2497   1.391       .  A
C2489      C2500   1.426       .  A
C2490      C2498   1.378       .  A
C2490      C2501   1.401       .  A
C2491      C2492   1.380       .  A
C2491      H2503   1.082       .  S
C2492      H2504   1.082       .  S
C2493      C2494   1.371       .  A
C2493      H2505   1.082       .  S
C2494      H2506   1.080       .  S
C2495      C2496   1.374       .  A
C2495      H2507   1.082       .  S
C2496      H2508   1.073       .  S
C2497      C2498   1.362       .  A
C2497      H2509   1.076       .  S
C2498      H2510   1.082       .  S
C2501      C2629   1.486       .  S
O2513      C3451   1.290       .  A
O2514     Cu2521   2.062   1_655  S
O2514      C3452   1.287       .  A
O2515     Cu2521   1.965       .  S
O2515      C3453   1.270       .  A
O2516     Cu2521   1.976       .  S
O2516      C3454   1.270       .  A
O2517     Cu2522   2.052       .  S
O2517      C2526   1.286   1_545  A
O2518     Cu2522   2.072       .  S
O2518      C2525   1.288   1_545  A
O2519     Cu2522   2.029   1_655  S
O2519      C2524   1.277   1_545  A
O2520      C2523   1.277   1_545  A
Cu2521    Cu3450   2.369       .  S
Cu2522    Cu3449   2.366   1_545  S
C2523      C2553   1.499       .  S
C2523      O3441   1.287       .  A
C2524      C2554   1.501       .  S
C2524      O3442   1.288       .  A
C2525      C2739   1.501       .  S
C2525      O3443   1.272       .  A
C2526      O3444   1.270       .  A
O2527     Cu2535   2.052       .  S
O2527      C2537   1.285       .  A
O2528     Cu2535   2.046       .  S
O2528      C2538   1.284       .  A
O2529      C2539   1.278       .  A
O2530     Cu2535   2.033       .  S
O2530      C2540   1.278       .  A
O2531     Cu2536   2.058       .  S
O2531      C2540   1.285       .  A
O2532      C2539   1.285       .  A
O2533     Cu2536   2.003       .  S
O2533      C2538   1.275       .  A
O2534     Cu2536   1.994       .  S
O2534      C2537   1.275       .  A
Cu2535    Cu2536   2.366       .  S
C2537      C2729   1.494       .  S
C2539      C2568   1.495       .  S
C2540      C2567   1.495       .  S
O2541     Cu2549   2.055       .  S
O2541      C3479   1.286       .  A
O2542     Cu2549   2.044       .  S
O2542      C3480   1.287       .  A
O2543     Cu2549   2.025       .  S
O2543      C3481   1.275       .  A
O2544     Cu2549   2.016       .  S
O2544      C3482   1.275       .  A
O2545     Cu2550   2.065       .  S
O2545      C2554   1.287   1_545  A
O2546     Cu2550   2.060       .  S
O2546      C2553   1.286   1_545  A
O2547     Cu2550   1.986       .  S
O2547      C2552   1.271   1_545  A
O2548     Cu2550   1.966       .  S
O2548      C2551   1.272   1_545  A
Cu2549    Cu3478   2.368       .  S
Cu2550    Cu3477   2.369   1_545  S
C2551      C2716   1.481       .  S
C2551      O3469   1.282       .  A
C2552      O3470   1.284       .  A
C2553      O3471   1.278       .  A
C2554      O3472   1.278       .  A
O2555     Cu2563   1.959       .  S
O2555      C2565   1.270       .  A
O2556     Cu2563   1.961       .  S
O2556      C2566   1.271       .  A
O2557     Cu2563   2.062       .  S
O2557      C2567   1.286       .  A
O2558     Cu2563   2.064       .  S
O2558      C2568   1.286       .  A
O2559     Cu2564   2.027       .  S
O2559      C2568   1.277       .  A
O2560     Cu2564   2.027       .  S
O2560      C2567   1.277       .  A
O2561     Cu2564   2.054       .  S
O2561      C2566   1.283       .  A
O2562     Cu2564   2.059       .  S
O2562      C2565   1.286       .  A
Cu2563    Cu2564   2.367       .  S
C2565      C2709   1.487       .  S
O2569     Cu3505   2.033       .  S
O2569      C2579   1.277   1_655  A
O2570     Cu2577   2.038       .  S
O2570      C2580   1.278   1_655  A
O2571     Cu2577   2.052       .  S
O2572     Cu2577   2.043       .  S
O2572      C2582   1.285       .  A
O2573     Cu2578   1.987       .  S
O2574     Cu2578   1.992       .  S
O2574      C2581   1.274       .  A
O2575     Cu2578   2.072       .  S
O2576     Cu3506   2.078   1_545  S
Cu2577     O3497   2.034       .  S
Cu2578     O3504   2.073       .  S
C2579      C2593   1.506       .  S
C2580      C2594   1.504   1_455  S
C2581      C2776   1.492       .  S
O2583     Cu2591   2.031       .  S
O2584     Cu2591   2.030       .  S
O2585     Cu2591   2.066       .  S
O2585      C2595   1.287       .  A
O2586     Cu2591   2.059       .  S
O2587     Cu2592   1.973       .  S
O2587      C2596   1.269       .  A
O2588     Cu2592   1.967       .  S
O2589     Cu2592   2.077       .  S
O2589      C2594   1.288       .  A
O2590     Cu2592   2.082       .  S
O2590      C2593   1.290   1_655  A
C2595      C2769   1.495       .  S
O2597     Cu2605   1.965       .  S
O2597      C2607   1.270       .  A
O2598     Cu2605   1.970       .  S
O2598      C3536   1.273       .  A
O2599     Cu2605   2.074   1_545  S
O2599      C2609   1.287       .  A
O2600     Cu3533   2.053       .  S
O2600      C2610   1.283       .  A
O2601     Cu3534   2.063       .  S
O2601      C2610   1.284       .  A
O2602     Cu2606   2.034   1_545  S
O2602      C2609   1.279       .  A
O2603     Cu2606   2.058       .  S
O2603      C3536   1.283       .  A
O2604     Cu2606   2.065   1_545  S
O2604      C2607   1.287   1_545  A
Cu2605     O3528   2.071       .  S
Cu2605    Cu2606   2.364       .  S
Cu2606     O3529   2.035       .  S
C2607      C2756   1.492   1_565  S
C2608      O3526   1.278       .  A
C2608      O3531   1.279       .  A
C2609      C2621   1.502       .  S
C2610      C2622   1.506       .  S
O2611     Cu2619   2.050       .  S
O2611      C2621   1.281       .  A
O2612     Cu2619   2.056       .  S
O2612      C2622   1.283       .  A
O2613     Cu2619   2.056       .  S
O2613      C2623   1.285       .  A
O2614     Cu2619   2.052       .  S
O2614      C2624   1.281       .  A
O2615     Cu2620   1.969       .  S
O2615      C2624   1.274       .  A
O2616     Cu2620   1.974       .  S
O2616      C2623   1.272       .  A
O2617     Cu2620   2.062       .  S
O2617      C2622   1.284       .  A
O2618     Cu2620   2.058       .  S
O2618      C2621   1.285       .  A
Cu2619    Cu2620   2.366       .  S
C2623      C2749   1.487       .  S
C2625      C2626   1.405       .  A
C2625      C2630   1.397       .  A
C2625      H2632   1.083       .  S
C2626      C2627   1.412       .  A
C2627      C2628   1.397       .  A
C2627      F2634   1.358       .  S
C2628      C2629   1.402       .  A
C2628      H2633   1.083       .  S
C2629      C2630   1.403       .  A
C2630      F2631   1.355       .  S
C2635      C2636   1.405   1_545  A
C2635      C2640   1.405       .  A
C2635      H2642   1.083       .  S
C2636      C3565   1.414       .  A
C2637      C3564   1.420       .  A
C2637      C2638   1.398       .  A
C2637      F2644   1.357       .  S
C2638      C3567   1.397       .  A
C2638      H2643   1.084       .  S
C2639      C3566   1.402       .  A
C2639      C2640   1.411   1_565  A
C2640      F2641   1.356       .  S
C2645      C2646   1.406       .  A
C2645      C2650   1.408   1_655  A
C2645      H2652   1.083   1_655  S
C2646      C2647   1.405       .  A
C2647      C2648   1.407       .  A
C2648      C2649   1.409       .  A
C2649      C2650   1.411   1_655  A
C2650      F2651   1.358       .  S
C2655      C2660   1.404       .  A
C2655      H3590   1.083       .  S
C2656      C2657   1.412       .  A
C2657      C2658   1.397       .  A
C2657      F2664   1.358       .  S
C2658      C2659   1.403       .  A
C2658      H2663   1.083       .  S
C2660      F3589   1.358       .  S
F2661      C3588   1.358       .  S
H2662      C3583   1.083       .  S
C2665      C2666   1.409       .  A
C2665      C2670   1.401       .  A
C2665      H2672   1.084       .  S
C2666      C2667   1.398       .  A
C2667      C2668   1.396       .  A
C2667      F2674   1.356       .  S
C2668      C2669   1.412       .  A
C2668      H2673   1.083       .  S
C2669      C2670   1.404       .  A
C2670      F2671   1.357       .  S
C2675      C2676   1.399       .  A
C2675      C2680   1.402       .  A
C2675      H2682   1.083       .  S
C2676      C3605   1.409       .  A
C2677      C3604   1.411       .  A
C2677      C2678   1.400       .  A
C2677      F2684   1.358       .  S
C2678      C3607   1.402       .  A
C2678      H2683   1.083       .  S
C2679      C3606   1.406       .  A
C2679      C2680   1.419       .  A
C2680      F2681   1.357       .  S
C2685      C2686   1.400       .  A
C2685      C2690   1.400       .  A
C2686      C2687   1.412   1_455  A
C2687      C2688   1.399       .  A
C2687      F2694   1.357       .  S
C2688      C2689   1.403   1_655  A
C2688      H2693   1.083       .  S
C2689      C2690   1.416       .  A
C2695      C3624   1.403   1_455  A
C2695      C2700   1.399       .  A
C2696      C3623   1.402   1_655  A
C2696      C2697   1.417       .  A
C2697      C2698   1.401       .  A
C2697      F2704   1.357       .  S
C2698      C2699   1.399       .  A
C2698      H2703   1.080       .  S
C2699      C3628   1.412   1_655  A
C2700      C3627   1.410   1_455  A
C2705      C2706   1.408       .  A
C2705      C2710   1.402       .  A
C2705      H2712   1.084       .  S
C2706      C2707   1.397       .  A
C2707      C2708   1.395       .  A
C2707      F2714   1.358       .  S
C2708      C2709   1.414       .  A
C2708      H2713   1.083       .  S
C2709      C2710   1.406       .  A
C2710      F2711   1.357       .  S
C2715      C2716   1.411   1_545  A
C2715      C2720   1.392       .  A
C2715      H2722   1.083       .  S
C2716      C2717   1.407       .  A
C2717      C2718   1.399       .  A
C2717      F2724   1.357       .  S
C2718      C2719   1.405       .  A
C2718      H2723   1.084       .  S
C2719      C2720   1.399   1_565  A
C2720      F2721   1.357       .  S
C2725      C2730   1.404       .  A
C2725      H2732   1.084       .  S
C2726      C2727   1.404       .  A
C2727      C2728   1.401       .  A
C2727      F2734   1.358       .  S
C2728      C2729   1.412       .  A
C2728      H2733   1.083       .  S
C2730      F2731   1.357       .  S
C2735      C2736   1.399       .  A
C2735      C2740   1.402       .  A
C2735      H2742   1.081       .  S
C2737      C2738   1.402       .  A
C2737      F2744   1.357   1_565  S
C2738      H2743   1.083   1_565  S
C2739      C2740   1.420       .  A
C2740      F3669   1.358       .  S
F2741      C3668   1.357       .  S
C2745      C2746   1.406       .  A
C2745      C2750   1.401       .  A
C2745      H2752   1.084       .  S
C2746      C2747   1.399       .  A
C2747      C2748   1.398       .  A
C2747      F2754   1.358       .  S
C2748      C2749   1.413       .  A
C2748      H2753   1.083       .  S
C2749      C2750   1.406       .  A
C2750      F2751   1.356       .  S
C2755      C2756   1.405       .  A
C2755      C2760   1.403       .  A
C2755      H2762   1.083       .  S
C2756      C3685   1.418       .  A
C2757      C3684   1.414       .  A
C2757      C2758   1.400       .  A
C2757      F2764   1.357       .  S
C2758      C3687   1.399       .  A
C2758      H2763   1.083       .  S
C2759      C3686   1.395       .  A
C2759      C2760   1.411       .  A
C2760      F2761   1.358       .  S
C2765      C2770   1.398       .  A
C2765      H2772   1.083       .  S
C2766      C2767   1.409       .  A
C2767      C2768   1.405       .  A
C2767      F2774   1.358       .  S
C2768      C2769   1.406       .  A
C2768      H2773   1.083       .  S
C2770      F2771   1.357       .  S
C2775      C3704   1.414       .  A
C2775      C2780   1.398       .  A
C2775      H2782   1.083       .  S
C2776      C3703   1.413       .  A
C2777      C2778   1.401   1_655  A
C2777      F2784   1.357       .  S
C2778      H2783   1.078   1_455  S
C2779      C3708   1.401       .  A
C2780      C3707   1.400       .  A
C2780      F2781   1.358       .  S
N2785      C2790   1.347       .  A
N2785      C2789   1.347       .  A
N2785      H2817   1.045       .  S
N2786      C2793   1.340       .  A
N2786      C2794   1.341       .  A
N2787      C2792   1.351       .  A
N2787      C2791   1.360       .  A
N2787      H2818   1.043       .  S
N2788      C2795   1.340       .  A
N2788      C2796   1.339       .  A
C2789      C2797   1.385       .  A
C2790      C2806   1.392       .  A
C2790      C2798   1.384       .  A
C2791      C2799   1.382       .  A
C2791      C2808   1.419       .  A
C2792      C2800   1.387       .  A
C2793      C2805   1.407       .  A
C2793      C2801   1.387       .  A
C2794      C2802   1.385       .  A
C2795      C2803   1.377       .  A
C2796      C2804   1.382       .  A
C2796      C2807   1.403       .  A
C2797      C2798   1.379       .  A
C2797      H2809   1.081       .  S
C2798      H2810   1.081       .  S
C2799      C2800   1.378       .  A
C2799      H2811   1.079       .  S
C2800      H2812   1.081       .  S
C2801      C2802   1.379       .  A
C2801      H2813   1.077       .  S
C2802      H2814   1.082       .  S
C2803      C2804   1.380       .  A
C2803      H2815   1.079       .  S
C2804      H2816   1.081       .  S
C2806      C2942   1.491       .  S
C2807      C2841   1.531       .  S
C2808      C3707   1.491       .  S
N2819      C2824   1.343       .  A
N2819      C2823   1.344       .  A
N2819      H2851   1.046   1_655  S
N2820      C2827   1.345       .  A
N2820      C2828   1.353       .  A
N2821      C2826   1.343       .  A
N2821      C2825   1.346       .  A
N2822      C2829   1.359       .  A
N2822      C2830   1.349       .  A
C2823      C2831   1.384       .  A
C2823      C2839   1.400       .  A
C2824      C2840   1.387       .  A
C2824      C2832   1.379       .  A
C2825      C2833   1.390       .  A
C2825      C2842   1.412       .  A
C2826      C2834   1.385       .  A
C2827      C2835   1.389       .  A
C2828      C2842   1.407       .  A
C2828      C2836   1.380       .  A
C2829      C2837   1.381       .  A
C2829      C2840   1.417       .  A
C2830      C2838   1.388       .  A
C2830      C2841   1.426   1_655  A
C2831      C2832   1.377       .  A
C2831      H2843   1.082       .  S
C2832      H2844   1.078       .  S
C2833      C2834   1.378       .  A
C2833      H2845   1.082       .  S
C2834      H2846   1.083       .  S
C2835      C2836   1.375       .  A
C2835      H2847   1.080       .  S
C2836      H2848   1.083       .  S
C2837      C2838   1.382       .  A
C2837      H2849   1.082       .  S
C2838      H2850   1.077       .  S
C2840      C2975   1.498       .  S
C2842      C3694   1.481       .  S
N2853      C2858   1.346       .  A
N2853      C2857   1.354       .  A
N2853      H2885   1.042       .  S
N2854      C2861   1.346       .  A
N2854      C2862   1.344       .  A
N2855      C2860   1.350       .  A
N2855      C2859   1.345       .  A
N2855      H2886   1.038   1_565  S
N2856      C2863   1.342       .  A
N2856      C2864   1.348       .  A
C2857      C2865   1.382       .  A
C2857      C2873   1.409       .  A
C2858      C2874   1.411       .  A
C2858      C2866   1.387       .  A
C2859      C2867   1.387       .  A
C2859      C2876   1.409       .  A
C2860      C2868   1.389       .  A
C2861      C2869   1.387       .  A
C2862      C2876   1.409       .  A
C2862      C2870   1.386       .  A
C2863      C2871   1.386       .  A
C2863      C2874   1.412       .  A
C2864      C2872   1.381       .  A
C2864      C2875   1.408       .  A
C2865      C2866   1.376       .  A
C2865      H2877   1.080       .  S
C2866      H2878   1.082       .  S
C2867      C2868   1.380       .  A
C2867      H2879   1.082       .  S
C2868      H2880   1.082       .  S
C2869      C2870   1.380       .  A
C2869      H2881   1.080       .  S
C2870      H2882   1.082       .  S
C2871      C2872   1.377       .  A
C2871      H2883   1.076       .  S
C2872      H2884   1.082       .  S
C2873      C3010   1.497       .  S
C2874      C2908   1.526       .  S
C2875      C3687   1.481       .  S
C2876      C2910   1.532       .  S
N2887      C2892   1.347       .  A
N2887      C2891   1.352       .  A
N2887      H2919   1.040       .  S
N2888      C2895   1.357       .  A
N2888      C2896   1.347       .  A
N2889      C2894   1.358       .  A
N2889      C2893   1.346       .  A
N2889      H2920   1.044       .  S
N2890      C2897   1.339       .  A
N2890      C2898   1.343       .  A
C2891      C2899   1.390       .  A
C2891      C2907   1.421       .  A
C2892      C2908   1.413       .  A
C2892      C2900   1.387       .  A
C2893      C2901   1.388       .  A
C2893      C2910   1.415       .  A
C2894      C2909   1.408       .  A
C2894      C2902   1.379       .  A
C2895      C2907   1.416       .  A
C2895      C2903   1.382       .  A
C2896      C2910   1.414       .  A
C2896      C2904   1.384       .  A
C2897      C2905   1.384       .  A
C2897      C2908   1.402       .  A
C2898      C2906   1.385       .  A
C2898      C2909   1.407       .  A
C2899      C2900   1.378       .  A
C2899      H2911   1.081       .  S
C2900      H2912   1.083       .  S
C2901      C2902   1.378       .  A
C2901      H2913   1.079       .  S
C2902      H2914   1.083       .  S
C2903      C2904   1.370       .  A
C2903      H2915   1.076       .  S
C2904      H2916   1.078       .  S
C2905      C2906   1.379       .  A
C2905      H2917   1.077       .  S
C2906      H2918   1.081       .  S
C2907      C3043   1.515       .  S
C2909      C3674   1.491       .  S
N2921      C2926   1.356       .  A
N2921      C2925   1.344       .  A
N2921      H2953   1.042       .  S
N2922      C2929   1.341       .  A
N2922      C2930   1.348       .  A
N2923      C2928   1.342   1_455  A
N2923      C2927   1.353       .  A
N2923      H2954   1.036       .  S
N2924      C2931   1.345       .  A
N2924      C2932   1.344   1_455  A
C2925      C2933   1.382       .  A
C2925      C2941   1.407       .  A
C2926      C2934   1.383       .  A
C2927      C2935   1.393   1_455  A
C2927      C2944   1.422       .  A
C2928      C2943   1.407       .  A
C2928      C2936   1.383       .  A
C2929      C2941   1.406       .  A
C2929      C2937   1.388       .  A
C2930      C2938   1.383       .  A
C2931      C2939   1.387   1_455  A
C2931      C2942   1.411       .  A
C2932      C2940   1.386       .  A
C2932      C2943   1.410       .  A
C2933      C2934   1.370       .  A
C2933      H2945   1.080       .  S
C2934      H2946   1.070       .  S
C2935      C2936   1.379       .  A
C2935      H2947   1.079       .  S
C2936      H2948   1.083       .  S
C2937      C2938   1.376       .  A
C2937      H2949   1.082       .  S
C2938      H2950   1.082       .  S
C2939      C2940   1.379       .  A
C2939      H2951   1.081       .  S
C2940      H2952   1.083       .  S
C2941      C3009   1.521       .  S
C2943      C3011   1.525       .  S
C2944      C3664   1.489       .  S
N2955      C2960   1.348       .  A
N2955      C2959   1.356       .  A
N2955      H2987   1.036       .  S
N2956      C2963   1.351       .  A
N2956      C2964   1.345       .  A
N2957      C2962   1.354       .  A
N2957      C2961   1.345       .  A
N2957      H2988   1.045       .  S
N2958      C2965   1.342       .  A
N2958      C2966   1.348       .  A
C2959      C2967   1.388       .  A
C2960      C2976   1.423       .  A
C2960      C2968   1.388       .  A
C2961      C2969   1.388       .  A
C2961      C2978   1.407       .  A
C2962      C2977   1.403       .  A
C2962      C2970   1.381       .  A
C2963      C2975   1.412       .  A
C2963      C2971   1.380       .  A
C2964      C2978   1.418       .  A
C2964      C2972   1.387       .  A
C2965      C2973   1.388       .  A
C2965      C2976   1.419       .  A
C2966      C2974   1.385       .  A
C2967      C2968   1.382       .  A
C2967      H2979   1.082       .  S
C2968      H2980   1.081       .  S
C2969      C2970   1.376       .  A
C2969      H2981   1.082       .  S
C2970      H2982   1.081       .  S
C2971      C2972   1.376       .  A
C2971      H2983   1.078       .  S
C2972      H2984   1.081       .  S
C2973      C2974   1.381       .  A
C2973      H2985   1.080       .  S
C2974      H2986   1.081       .  S
C2976      C3044   1.531       .  S
C2977      C3654   1.491       .  S
C2978      C3046   1.530       .  S
N2989      C2994   1.347       .  A
N2989      C2993   1.338       .  A
N2989      H3021   1.049       .  S
N2990      C2997   1.343       .  A
N2990      C2998   1.342       .  A
N2991      C2996   1.351       .  A
N2991      C2995   1.358       .  A
N2991      H3022   1.046       .  S
N2992      C2999   1.349       .  A
N2992      C3000   1.342       .  A
C2993      C3001   1.388       .  A
C2993      C3009   1.410       .  A
C2994      C3010   1.422       .  A
C2994      C3002   1.392       .  A
C2995      C3003   1.379       .  A
C2995      C3012   1.415       .  A
C2996      C3011   1.424       .  A
C2996      C3004   1.389       .  A
C2997      C3009   1.406       .  A
C2997      C3005   1.385       .  A
C2998      C3012   1.408       .  A
C2998      C3006   1.388       .  A
C2999      C3007   1.377       .  A
C2999      C3010   1.415       .  A
C3000      C3008   1.388       .  A
C3000      C3011   1.420       .  A
C3001      C3002   1.383       .  A
C3001      H3013   1.083       .  S
C3002      H3014   1.082       .  S
C3003      C3004   1.373       .  A
C3003      H3015   1.080       .  S
C3004      H3016   1.080       .  S
C3005      C3006   1.376       .  A
C3005      H3017   1.082       .  S
C3006      H3018   1.082       .  S
C3007      C3008   1.376       .  A
C3007      H3019   1.076       .  S
C3008      H3020   1.081       .  S
C3012      C3647   1.487       .  S
N3023      C3028   1.351       .  A
N3023      C3027   1.358       .  A
N3023      H3055   1.043       .  S
N3024      C3031   1.346       .  A
N3024      C3032   1.341       .  A
N3025      C3030   1.354       .  A
N3025      C3029   1.346       .  A
N3025      H3056   1.036       .  S
N3026      C3033   1.344       .  A
N3026      C3034   1.352       .  A
C3027      C3035   1.375       .  A
C3027      C3043   1.418       .  A
C3028      C3044   1.415       .  A
C3028      C3036   1.387       .  A
C3029      C3037   1.389       .  A
C3029      C3046   1.421       .  A
C3030      C3045   1.420       .  A
C3030      C3038   1.386       .  A
C3031      C3043   1.414       .  A
C3031      C3039   1.387       .  A
C3032      C3046   1.409       .  A
C3032      C3040   1.383       .  A
C3033      C3041   1.388       .  A
C3033      C3044   1.412       .  A
C3034      C3042   1.382       .  A
C3034      C3045   1.409       .  A
C3035      C3036   1.375       .  A
C3035      H3047   1.073       .  S
C3036      H3048   1.082       .  S
C3037      C3038   1.382       .  A
C3037      H3049   1.080       .  S
C3038      H3050   1.082       .  S
C3039      C3040   1.377       .  A
C3039      H3051   1.079       .  S
C3040      H3052   1.078       .  S
C3041      C3042   1.375       .  A
C3041      H3053   1.082       .  S
C3042      H3054   1.082       .  S
C3045      C3634   1.497       .  S
N3057      C3062   1.362       .  A
N3057      C3061   1.351       .  A
N3057      H3089   1.044       .  S
N3058      C3065   1.343       .  A
N3058      C3066   1.357       .  A
N3059      C3064   1.344   1_545  A
N3059      C3063   1.352   1_455  A
N3059      H3090   1.045       .  S
N3060      C3067   1.355       .  A
N3060      C3068   1.349   1_545  A
C3061      C3069   1.396       .  A
C3061      C3077   1.429       .  A
C3062      C3070   1.371       .  A
C3063      C3071   1.372   1_545  A
C3063      C3080   1.377       .  A
C3064      C3079   1.414       .  A
C3064      C3072   1.397   1_455  A
C3065      C3077   1.418       .  A
C3065      C3073   1.398       .  A
C3066      C3074   1.377       .  A
C3067      C3075   1.375   1_545  A
C3067      C3078   1.406       .  A
C3068      C3076   1.391       .  A
C3068      C3079   1.412       .  A
C3069      C3070   1.360       .  A
C3069      H3081   1.072       .  S
C3070      H3082   1.082   1_655  S
C3071      C3072   1.354       .  A
C3071      H3083   1.083       .  S
C3072      H3084   1.077       .  S
C3073      C3074   1.376       .  A
C3073      H3085   1.083       .  S
C3074      H3086   1.081       .  S
C3075      C3076   1.370       .  A
C3075      H3087   1.075       .  S
C3076      H3088   1.080       .  S
C3077      C3114   1.487       .  S
C3078      C3325   1.500       .  S
C3079      C3112   1.485       .  S
C3080      C3627   1.488       .  S
N3091      C3096   1.347       .  A
N3091      C3095   1.357       .  A
N3091      H3123   1.045       .  S
N3092      C3099   1.353       .  A
N3092      C3100   1.343       .  A
N3093      C3098   1.352       .  A
N3093      C3097   1.345       .  A
N3093      H3124   1.045       .  S
N3094      C3101   1.343       .  A
N3094      C3102   1.352       .  A
C3095      C3103   1.369       .  A
C3095      C3111   1.390       .  A
C3096      C3112   1.420   1_655  A
C3096      C3104   1.394       .  A
C3097      C3105   1.395       .  A
C3097      C3114   1.414       .  A
C3098      C3113   1.379       .  A
C3098      C3106   1.375       .  A
C3099      C3111   1.418       .  A
C3099      C3107   1.389       .  A
C3100      C3114   1.406       .  A
C3100      C3108   1.386       .  A
C3101      C3109   1.396       .  A
C3101      C3112   1.411       .  A
C3102      C3110   1.376       .  A
C3102      C3113   1.397   1_455  A
C3103      C3104   1.355       .  A
C3103      H3115   1.073       .  S
C3104      H3116   1.074       .  S
C3105      C3106   1.361       .  A
C3105      H3117   1.080       .  S
C3106      H3118   1.083   1_655  S
C3107      C3108   1.372       .  A
C3107      H3119   1.071       .  S
C3108      H3120   1.083       .  S
C3109      C3110   1.376       .  A
C3109      H3121   1.083       .  S
C3110      H3122   1.082       .  S
C3111      C3359   1.516       .  S
C3113      C3614   1.480   1_655  S
N3125      C3130   1.340       .  A
N3125      C3129   1.351       .  A
N3125      H3157   1.042       .  S
N3126      C3133   1.345       .  A
N3126      C3134   1.336       .  A
N3127      C3132   1.357       .  A
N3127      C3131   1.345       .  A
N3127      H3158   1.040       .  S
N3128      C3135   1.344       .  A
N3128      C3136   1.346       .  A
C3129      C3137   1.387       .  A
C3130      C3146   1.402       .  A
C3130      C3138   1.388       .  A
C3131      C3139   1.387       .  A
C3131      C3148   1.413       .  A
C3132      C3147   1.421       .  A
C3132      C3140   1.388       .  A
C3133      C3145   1.402       .  A
C3133      C3141   1.381       .  A
C3134      C3148   1.408       .  A
C3134      C3142   1.388       .  A
C3135      C3143   1.384       .  A
C3135      C3146   1.411       .  A
C3136      C3144   1.385       .  A
C3137      C3138   1.387       .  A
C3137      H3149   1.080       .  S
C3138      H3150   1.083       .  S
C3139      C3140   1.384       .  A
C3139      H3151   1.083       .  S
C3140      H3152   1.081       .  S
C3141      C3142   1.373       .  A
C3141      H3153   1.082       .  S
C3142      H3154   1.078       .  S
C3143      C3144   1.373       .  A
C3143      H3155   1.080       .  S
C3144      H3156   1.082       .  S
C3145      C3394   1.482       .  S
C3146      C3181   1.519       .  S
C3147      C3604   1.494       .  S
C3148      C3179   1.512       .  S
N3159      C3164   1.354       .  A
N3159      C3163   1.340       .  A
N3159      H3191   1.043       .  S
N3160      C3167   1.339       .  A
N3160      C3168   1.343       .  A
N3161      C3166   1.341       .  A
N3161      C3165   1.352       .  A
N3161      H3192   1.043       .  S
N3162      C3169   1.350       .  A
N3162      C3170   1.340       .  A
C3163      C3171   1.383       .  A
C3163      C3179   1.398       .  A
C3164      C3180   1.421       .  A
C3164      C3172   1.392       .  A
C3165      C3173   1.385       .  A
C3165      C3182   1.405       .  A
C3166      C3181   1.400       .  A
C3166      C3174   1.387       .  A
C3167      C3179   1.401       .  A
C3167      C3175   1.387       .  A
C3168      C3182   1.403       .  A
C3168      C3176   1.385       .  A
C3169      C3177   1.381       .  A
C3169      C3180   1.412       .  A
C3170      C3178   1.381       .  A
C3170      C3181   1.411       .  A
C3171      C3172   1.383       .  A
C3171      H3183   1.083       .  S
C3172      H3184   1.077       .  S
C3173      C3174   1.383       .  A
C3173      H3185   1.082       .  S
C3174      H3186   1.082       .  S
C3175      C3176   1.376       .  A
C3175      H3187   1.082       .  S
C3176      H3188   1.082       .  S
C3177      C3178   1.370       .  A
C3177      H3189   1.072       .  S
C3178      H3190   1.075       .  S
C3180      C3427   1.509       .  S
C3182      C3594   1.476       .  S
O3193     Cu3201   2.065       .  S
O3194     Cu3201   2.054       .  S
O3195     Cu3201   2.029   1_565  S
O3197      C3206   1.290       .  A
O3198     Cu3202   2.063   1_565  S
O3198      C3205   1.287   1_655  A
O3199     Cu3202   1.988       .  S
O3199      C3204   1.271   1_655  A
O3200     Cu3202   1.983       .  S
O3200      C3203   1.272       .  A
C3203      C3624   1.492       .  S
C3204      C3510   1.471       .  S
C3205      C3220   1.504       .  S
C3206      C3219   1.505       .  S
O3207     Cu3215   2.017       .  S
O3207      C3217   1.282   1_655  A
O3208     Cu3215   2.022       .  S
O3208      C3218   1.281       .  A
O3209     Cu3215   2.037       .  S
O3209      C3219   1.278       .  A
O3210     Cu3215   2.030       .  S
O3210      C3220   1.278   1_655  A
O3211     Cu3216   2.080       .  S
O3212     Cu3216   2.081       .  S
O3213     Cu3216   1.992       .  S
O3214     Cu3216   1.992       .  S
C3217      C3524   1.470       .  S
C3218      C3617   1.485   1_655  S
O3221     Cu3229   1.985       .  S
O3221      C3231   1.276       .  A
O3222     Cu3229   1.990       .  S
O3222      C3232   1.274       .  A
O3223      C3233   1.287       .  A
O3224     Cu3229   2.053       .  S
O3224      C3234   1.283       .  A
O3225     Cu3230   2.060       .  S
O3225      C3234   1.283       .  A
O3226      C3233   1.280       .  A
O3227     Cu3230   2.052       .  S
O3227      C3232   1.285       .  A
O3228     Cu3230   2.047       .  S
O3228      C3231   1.280       .  A
Cu3229    Cu3230   2.366       .  S
C3231      C3536   1.475       .  S
C3232      C3607   1.490       .  S
C3233      C3247   1.507       .  S
C3234      C3248   1.504       .  S
O3235     Cu3243   2.051       .  S
O3235      C3245   1.284       .  A
O3236     Cu3243   2.052       .  S
O3236      C3246   1.282       .  A
O3237     Cu3243   2.049       .  S
O3237      C3247   1.280       .  A
O3238     Cu3243   2.046       .  S
O3238      C3248   1.281       .  A
O3239     Cu3244   2.067       .  S
O3239      C3248   1.285       .  A
O3240     Cu3244   2.069       .  S
O3240      C3247   1.287       .  A
O3241     Cu3244   1.968       .  S
O3241      C3246   1.273       .  A
O3242     Cu3244   1.957       .  S
O3242      C3245   1.271       .  A
Cu3243    Cu3244   2.365       .  S
C3245      C3597   1.485       .  S
C3246      C3552   1.471       .  S
O3250     Cu3257   2.023   1_655  S
O3251     Cu3257   2.043       .  S
O3252     Cu3257   2.052       .  S
O3253     Cu3258   1.964       .  S
O3253      C3262   1.270       .  A
O3254     Cu3258   1.972       .  S
O3254      C3261   1.269       .  A
O3255     Cu3258   2.075   1_655  S
O3255      C3260   1.289       .  A
O3256      C3259   1.288       .  A
C3259      C3287   1.497       .  S
C3260      C3288   1.502       .  S
C3261      C3454   1.462   1_554  S
C3262      C3584   1.479       .  S
O3263     Cu3271   2.060       .  S
O3263      C3273   1.285       .  A
O3264      C3274   1.282       .  A
O3265     Cu3271   2.023       .  S
O3265      C3275   1.277       .  A
O3266     Cu3271   2.028       .  S
O3266      C3276   1.280       .  A
O3267     Cu3272   2.036       .  S
O3267      C3276   1.280       .  A
O3268     Cu3272   2.026       .  S
O3268      C3275   1.281       .  A
O3269      C3274   1.282       .  A
O3270     Cu3272   2.046       .  S
O3270      C3273   1.281       .  A
Cu3271    Cu3272   2.368       .  S
C3273      C3301   1.502       .  S
C3274      C3302   1.498       .  S
C3275      C3466   1.479   1_554  S
C3276      C3574   1.487       .  S
O3277     Cu3285   2.021       .  S
O3277      C3287   1.275       .  A
O3278     Cu3285   2.028       .  S
O3278      C3288   1.276       .  A
O3279     Cu3285   2.063       .  S
O3279      C3289   1.288       .  A
O3280     Cu3285   2.082       .  S
O3280      C3290   1.289       .  A
O3281     Cu3286   1.978       .  S
O3282     Cu3286   1.977       .  S
O3283     Cu3286   2.066       .  S
O3284     Cu3286   2.068       .  S
C3289      C3480   1.474   1_554  S
C3290      C3564   1.501       .  S
O3291     Cu3299   2.044       .  S
O3291      C3301   1.281       .  A
O3292     Cu3299   2.044       .  S
O3292      C3302   1.281       .  A
O3293     Cu3299   1.993       .  S
O3293      C3303   1.275       .  A
O3294     Cu3299   1.996       .  S
O3294      C3304   1.278       .  A
O3295     Cu3300   2.031       .  S
O3295      C3304   1.278       .  A
O3296     Cu3300   2.015       .  S
O3296      C3303   1.280       .  A
O3297     Cu3300   2.055       .  S
O3297      C3302   1.283       .  A
O3298     Cu3300   2.061       .  S
O3298      C3301   1.284       .  A
Cu3299    Cu3300   2.368       .  S
C3303      C3554   1.477       .  S
C3304      C3494   1.473   1_554  S
N3305      C3310   1.343       .  A
N3305      H3337   1.043   1_655  S
N3306      C3314   1.335       .  A
N3307      C3312   1.351       .  A
N3307      C3311   1.345       .  A
N3307      H3338   1.038       .  S
N3308      C3315   1.341       .  A
N3308      C3316   1.348       .  A
C3309      C3317   1.384       .  A
C3309      C3325   1.416   1_655  A
C3310      C3326   1.415       .  A
C3311      C3319   1.388       .  A
C3311      C3328   1.414       .  A
C3312      C3320   1.385       .  A
C3313      C3321   1.384       .  A
C3314      C3328   1.394       .  A
C3315      C3323   1.385       .  A
C3315      C3326   1.400       .  A
C3316      C3324   1.383       .  A
C3316      C3327   1.404   1_655  A
C3317      C3318   1.376       .  A
C3317      H3329   1.081       .  S
C3318      H3330   1.082       .  S
C3319      C3320   1.380       .  A
C3319      H3331   1.082       .  S
C3320      H3332   1.082       .  S
C3321      C3322   1.389       .  A
C3321      H3333   1.081       .  S
C3322      H3334   1.076       .  S
C3323      C3324   1.369       .  A
C3323      H3335   1.081       .  S
C3324      H3336   1.083       .  S
C3326      C3393   1.520       .  S
C3327      C3587   1.482       .  S
C3328      C3395   1.522       .  S
N3339      C3344   1.345       .  A
N3339      C3343   1.354       .  A
N3339      H3371   1.044       .  S
N3340      C3347   1.346       .  A
N3340      C3348   1.339       .  A
N3341      C3346   1.346       .  A
N3341      C3345   1.348       .  A
N3341      H3372   1.046       .  S
N3342      C3349   1.347       .  A
N3342      C3350   1.355       .  A
C3343      C3351   1.377       .  A
C3343      C3359   1.402       .  A
C3344      C3360   1.418       .  A
C3344      C3352   1.394       .  A
C3345      C3353   1.384       .  A
C3345      C3362   1.412       .  A
C3346      C3354   1.386       .  A
C3347      C3355   1.388       .  A
C3348      C3362   1.400       .  A
C3348      C3356   1.387       .  A
C3349      C3357   1.391       .  A
C3349      C3360   1.417       .  A
C3350      C3358   1.375       .  A
C3350      C3361   1.417       .  A
C3351      C3352   1.376       .  A
C3351      H3363   1.077       .  S
C3352      H3364   1.082       .  S
C3353      C3354   1.385       .  A
C3353      H3365   1.082       .  S
C3354      H3366   1.081       .  S
C3355      C3356   1.376       .  A
C3355      H3367   1.080       .  S
C3356      H3368   1.083       .  S
C3357      C3358   1.386       .  A
C3357      H3369   1.082       .  S
C3358      H3370   1.074       .  S
C3360      C3428   1.501       .  S
C3361      C3577   1.512       .  S
C3362      C3430   1.491       .  S
N3373      C3378   1.342       .  A
N3374      C3381   1.339       .  A
N3374      C3382   1.346       .  A
N3375      C3380   1.343       .  A
N3375      C3379   1.356       .  A
N3375      H3406   1.044       .  S
N3376      C3384   1.345       .  A
C3377      C3393   1.404       .  A
C3378      C3394   1.401       .  A
C3378      C3386   1.380       .  A
C3379      C3387   1.382       .  A
C3379      C3396   1.407       .  A
C3380      C3395   1.409       .  A
C3380      C3388   1.391       .  A
C3381      C3393   1.409       .  A
C3381      C3389   1.389       .  A
C3382      C3396   1.411       .  A
C3382      C3390   1.385       .  A
C3383      C3391   1.379       .  A
C3383      C3394   1.409       .  A
C3384      C3395   1.419       .  A
C3385      C3386   1.376       .  A
C3385      H3397   1.081       .  S
C3386      H3398   1.078       .  S
C3387      C3388   1.382       .  A
C3387      H3399   1.082       .  S
C3388      H3400   1.083       .  S
C3389      C3390   1.383       .  A
C3389      H3401   1.082       .  S
C3390      H3402   1.081       .  S
C3391      C3392   1.373   1_565  A
C3391      H3403   1.082       .  S
C3392      H3404   1.076       .  S
C3396      C3567   1.496       .  S
N3407      C3412   1.354       .  A
N3407      C3411   1.363       .  A
N3407      H3439   1.035       .  S
N3408      C3415   1.347       .  A
N3408      C3416   1.345       .  A
N3409      C3414   1.344       .  A
N3409      C3413   1.345       .  A
N3409      H3440   1.043       .  S
N3410      C3417   1.347       .  A
N3410      C3418   1.357       .  A
C3411      C3419   1.385       .  A
C3411      C3427   1.429       .  A
C3412      C3428   1.434       .  A
C3412      C3420   1.393       .  A
C3413      C3421   1.388       .  A
C3413      C3430   1.403       .  A
C3414      C3429   1.396       .  A
C3414      C3422   1.385       .  A
C3415      C3427   1.408       .  A
C3415      C3423   1.385       .  A
C3416      C3430   1.413       .  A
C3416      C3424   1.388       .  A
C3417      C3425   1.391       .  A
C3417      C3428   1.428       .  A
C3418      C3426   1.374       .  A
C3418      C3429   1.400       .  A
C3419      C3420   1.378       .  A
C3419      H3431   1.081       .  S
C3420      H3432   1.083       .  S
C3421      C3422   1.371       .  A
C3421      H3433   1.083       .  S
C3422      H3434   1.080       .  S
C3423      C3424   1.378       .  A
C3423      H3435   1.082       .  S
C3424      H3436   1.081       .  S
C3425      C3426   1.359       .  A
C3425      H3437   1.068       .  S
C3426      H3438   1.083       .  S
C3429      C3557   1.479       .  S
O3442     Cu3449   2.074   1_655  S
O3443     Cu3449   1.986       .  S
O3444     Cu3449   1.980       .  S
O3445     Cu3450   2.028       .  S
O3445      C3454   1.283       .  A
O3446     Cu3450   2.031       .  S
O3446      C3453   1.283       .  A
O3447     Cu3450   2.036   1_655  S
O3447      C3452   1.277       .  A
O3448      C3451   1.274       .  A
C3451      C3481   1.500       .  S
C3452      C3482   1.498       .  S
C3453      C3667   1.478       .  S
O3455     Cu3463   2.053       .  S
O3455      C3465   1.284       .  A
O3456     Cu3463   2.048       .  S
O3456      C3466   1.284       .  A
O3457      C3467   1.279       .  A
O3458     Cu3463   2.033       .  S
O3458      C3468   1.278       .  A
O3459     Cu3464   2.058       .  S
O3459      C3468   1.285       .  A
O3460      C3467   1.285       .  A
O3461     Cu3464   2.000       .  S
O3461      C3466   1.275       .  A
O3462     Cu3464   1.991       .  S
O3462      C3465   1.275       .  A
Cu3463    Cu3464   2.366       .  S
C3465      C3657   1.494       .  S
C3467      C3496   1.497       .  S
C3468      C3495   1.495       .  S
O3469     Cu3477   2.033       .  S
O3470     Cu3477   2.034       .  S
O3471     Cu3477   2.040       .  S
O3472     Cu3477   2.038       .  S
O3473     Cu3478   2.079       .  S
O3473      C3482   1.289       .  A
O3474     Cu3478   2.078       .  S
O3474      C3481   1.290       .  A
O3475     Cu3478   1.990       .  S
O3475      C3480   1.270       .  A
O3476     Cu3478   1.976       .  S
O3476      C3479   1.272       .  A
C3479      C3644   1.489       .  S
O3483     Cu3491   1.982       .  S
O3483      C3493   1.273       .  A
O3484     Cu3491   1.978       .  S
O3484      C3494   1.273       .  A
O3485     Cu3491   2.061       .  S
O3485      C3495   1.285       .  A
O3486     Cu3491   2.064       .  S
O3486      C3496   1.286       .  A
O3487     Cu3492   2.030       .  S
O3487      C3496   1.278       .  A
O3488     Cu3492   2.030       .  S
O3488      C3495   1.278       .  A
O3489     Cu3492   2.052       .  S
O3489      C3494   1.283       .  A
O3490     Cu3492   2.059       .  S
O3490      C3493   1.286       .  A
Cu3491    Cu3492   2.367       .  S
C3493      C3637   1.493       .  S
O3497      C3507   1.278   1_655  A
O3498     Cu3505   2.037   1_565  S
O3498      C3508   1.278   1_655  A
O3499     Cu3505   2.051       .  S
O3500     Cu3505   2.044       .  S
O3500      C3510   1.285   1_655  A
O3501     Cu3506   1.988       .  S
O3502     Cu3506   1.977       .  S
O3502      C3509   1.272       .  A
O3503     Cu3506   2.082       .  S
C3507      C3521   1.501       .  S
C3508      C3522   1.507       .  S
C3509      C3704   1.494       .  S
O3511     Cu3519   2.036       .  S
O3512     Cu3519   2.039       .  S
O3513     Cu3519   2.062       .  S
O3513      C3523   1.286       .  A
O3514     Cu3519   2.052       .  S
O3515     Cu3520   1.972       .  S
O3515      C3524   1.270   1_655  A
O3516     Cu3520   1.973       .  S
O3517     Cu3520   2.071       .  S
O3517      C3522   1.287   1_655  A
O3518     Cu3520   2.070       .  S
O3518      C3521   1.288   1_655  A
C3523      C3697   1.489       .  S
O3525     Cu3533   1.992       .  S
O3525      C3535   1.275       .  A
O3526     Cu3533   2.000       .  S
O3527     Cu3533   2.050       .  S
O3527      C3537   1.283       .  A
O3528      C3538   1.286       .  A
O3529      C3538   1.279       .  A
O3530     Cu3534   2.066       .  S
O3530      C3537   1.284       .  A
O3531     Cu3534   2.036       .  S
O3532     Cu3534   2.026       .  S
O3532      C3535   1.281       .  A
Cu3533    Cu3534   2.367       .  S
C3535      C3684   1.482       .  S
C3537      C3549   1.506       .  S
C3538      C3550   1.502       .  S
O3539     Cu3547   2.049       .  S
O3539      C3549   1.282       .  A
O3540     Cu3547   2.047       .  S
O3540      C3550   1.280       .  A
O3541     Cu3547   2.055       .  S
O3541      C3551   1.285       .  A
O3542     Cu3547   2.045       .  S
O3542      C3552   1.280       .  A
O3543     Cu3548   1.975       .  S
O3543      C3552   1.275       .  A
O3544     Cu3548   1.981       .  S
O3544      C3551   1.274       .  A
O3545     Cu3548   2.062       .  S
O3545      C3550   1.285       .  A
O3546     Cu3548   2.065       .  S
O3546      C3549   1.284       .  A
Cu3547    Cu3548   2.365       .  S
C3551      C3677   1.492       .  S
C3553      C3554   1.404       .  A
C3553      C3558   1.393       .  A
C3553      H3560   1.083       .  S
C3554      C3555   1.412       .  A
C3555      C3556   1.398       .  A
C3555      F3562   1.357       .  S
C3556      C3557   1.402       .  A
C3556      H3561   1.083       .  S
C3557      C3558   1.400       .  A
C3558      F3559   1.355       .  S
C3563      C3564   1.407       .  A
C3563      C3568   1.410       .  A
C3563      H3570   1.083       .  S
C3565      C3566   1.397       .  A
C3565      F3572   1.358       .  S
C3566      H3571   1.084       .  S
C3567      C3568   1.413       .  A
C3568      F3569   1.357       .  S
C3573      C3574   1.403       .  A
C3573      C3578   1.403   1_655  A
C3573      H3580   1.084   1_655  S
C3574      C3575   1.404       .  A
C3575      C3576   1.408       .  A
C3576      C3577   1.414       .  A
C3577      C3578   1.415   1_655  A
C3578      F3579   1.358       .  S
C3583      C3588   1.399       .  A
C3584      C3585   1.416       .  A
C3585      C3586   1.395       .  A
C3585      F3592   1.358       .  S
C3586      C3587   1.398       .  A
C3586      H3591   1.084       .  S
C3593      C3594   1.407       .  A
C3593      C3598   1.403       .  A
C3593      H3600   1.084       .  S
C3594      C3595   1.394       .  A
C3595      C3596   1.393       .  A
C3595      F3602   1.357       .  S
C3596      C3597   1.412       .  A
C3596      H3601   1.082       .  S
C3597      C3598   1.407       .  A
C3598      F3599   1.357       .  S
C3603      C3604   1.401       .  A
C3603      C3608   1.403       .  A
C3603      H3610   1.083       .  S
C3605      C3606   1.404       .  A
C3605      F3612   1.357       .  S
C3606      H3611   1.083       .  S
C3607      C3608   1.415       .  A
C3608      F3609   1.358       .  S
C3613      C3614   1.399       .  A
C3613      C3618   1.398       .  A
C3614      C3615   1.405   1_455  A
C3615      C3616   1.397       .  A
C3615      F3622   1.358       .  S
C3616      C3617   1.405   1_655  A
C3616      H3621   1.083       .  S
C3617      C3618   1.413       .  A
C3623      C3628   1.398       .  A
C3624      C3625   1.419       .  A
C3625      C3626   1.403       .  A
C3625      F3632   1.358       .  S
C3626      C3627   1.401       .  A
C3626      H3631   1.083       .  S
C3633      C3634   1.409       .  A
C3633      C3638   1.404       .  A
C3633      H3640   1.084       .  S
C3634      C3635   1.403       .  A
C3635      C3636   1.402       .  A
C3635      F3642   1.357       .  S
C3636      C3637   1.413       .  A
C3636      H3641   1.083       .  S
C3637      C3638   1.406       .  A
C3638      F3639   1.357       .  S
C3643      C3644   1.412       .  A
C3643      C3648   1.397       .  A
C3643      H3650   1.083       .  S
C3644      C3645   1.407       .  A
C3645      C3646   1.402       .  A
C3645      F3652   1.357       .  S
C3646      C3647   1.405       .  A
C3646      H3651   1.083       .  S
C3647      C3648   1.401       .  A
C3648      F3649   1.357       .  S
C3653      C3658   1.403       .  A
C3653      H3660   1.084       .  S
C3654      C3655   1.403       .  A
C3655      C3656   1.399       .  A
C3655      F3662   1.357       .  S
C3656      C3657   1.412       .  A
C3656      H3661   1.083       .  S
C3658      F3659   1.357       .  S
C3663      C3664   1.399       .  A
C3663      C3668   1.397       .  A
C3663      H3670   1.083       .  S
C3665      C3666   1.403       .  A
C3665      F3672   1.357       .  S
C3666      H3671   1.083       .  S
C3667      C3668   1.415       .  A
C3673      C3674   1.408       .  A
C3673      C3678   1.404       .  A
C3673      H3680   1.084       .  S
C3674      C3675   1.401       .  A
C3675      C3676   1.399       .  A
C3675      F3682   1.354       .  S
C3676      C3677   1.412       .  A
C3676      H3681   1.083       .  S
C3677      C3678   1.407       .  A
C3678      F3679   1.355       .  S
C3683      C3684   1.403       .  A
C3683      C3688   1.397       .  A
C3683      H3690   1.083       .  S
C3685      C3686   1.397       .  A
C3685      F3692   1.357       .  S
C3686      H3691   1.083       .  S
C3687      C3688   1.405       .  A
C3688      F3689   1.356       .  S
C3693      C3698   1.400       .  A
C3693      H3700   1.083       .  S
C3694      C3695   1.409       .  A
C3695      C3696   1.403       .  A
C3695      F3702   1.356       .  S
C3696      C3697   1.405       .  A
C3696      H3701   1.083       .  S
C3698      F3699   1.356       .  S
C3703      C3708   1.401       .  A
C3703      H3710   1.083       .  S
C3705      C3706   1.400   1_645  A
C3705      F3712   1.356       .  S
C3706      H3711   1.083   1_465  S
C3708      F3709   1.356       .  S
