geometry optimzed in LAMMPS
_audit_creation_date              2020-11-30 
_audit_creation_method            'lammps2cif' 
_symmetry_space_group_name_H-M    'P1' 
_symmetry_Int_Tables_number       1 
_symmetry_cell_setting            triclinic 
loop_ 
_symmetry_equiv_pos_as_xyz 
  x,y,z 
_cell_length_a                    50.11682471 
_cell_length_b                    50.242963017955944 
_cell_length_c                    58.44608599678746 
_cell_angle_alpha                 90.29999741178297 
_cell_angle_beta                  90.07972363389969 
_cell_angle_gamma                 120.53743978313457 
loop_ 
_atom_site_label 
_atom_site_type_symbol 
_atom_site_fract_x 
_atom_site_fract_y 
_atom_site_fract_z 
_atom_site_charge 
Zn1        Zn  0.32842679  0.16641708  0.03195282     1.49700
Zn2        Zn  0.29255228  0.16576506  0.98568444     1.49400
Zn3        Zn  0.36698149  0.20552045  0.98937288     1.49100
Zn4        Zn  0.33154924  0.13114501  0.98722765     1.49500
O5          O  0.32966155  0.16704101  0.99845363    -1.82700
O6          O  0.29289464  0.17094240  0.04282097    -0.73400
O7          O  0.30497932  0.20392662  0.96623999    -0.73200
O8          O  0.39401159  0.23000000  0.01644460    -0.72700
O9          O  0.26603553  0.16695750  0.01130397    -0.73400
O10         O  0.36851935  0.20075708  0.04611783    -0.73000
O11         O  0.35584093  0.23194296  0.97043407    -0.73600
O12         O  0.36996216  0.14537088  0.96768891    -0.72900
O13         O  0.26655939  0.12653488  0.96622407    -0.73700
O14         O  0.39381281  0.19642989  0.96938157    -0.73100
O15         O  0.29479509  0.10379309  0.96681738    -0.73600
O16         O  0.33081769  0.10457644  0.01389488    -0.73500
O17         O  0.32240577  0.12620226  0.04424617    -0.73300
C18         C  0.26969185  0.16989620  0.03294767     0.78500
C19         C  0.33075734  0.22837777  0.96202416     0.79000
C20         C  0.39208517  0.22444533  0.03781566     0.78000
C21         C  0.39232639  0.17187566  0.96198028     0.78400
C22         C  0.27101930  0.10462185  0.96016651     0.79500
C23         C  0.32563767  0.10486135  0.03526926     0.78500
Zn24       Zn  0.33415380  0.17092566  0.46734901     1.49700
Zn25       Zn  0.36963542  0.21047699  0.51179502     1.49400
Zn26       Zn  0.29554557  0.16944984  0.51135440     1.49100
Zn27       Zn  0.33493042  0.13610681  0.51235432     1.49500
O28         O  0.33374170  0.17184640  0.50072660    -1.82700
O29         O  0.37405245  0.20631230  0.45514397    -0.73400
O30         O  0.35579848  0.23451627  0.53160851    -0.73200
O31         O  0.27126376  0.17173929  0.48512519    -0.72700
O32         O  0.39630538  0.23682808  0.48541340    -0.73400
O33         O  0.29913667  0.17527384  0.45445011    -0.73000
O34         O  0.30460251  0.20472146  0.53207825    -0.73600
O35         O  0.29625878  0.10814562  0.53015670    -0.72900
O36         O  0.39675501  0.20130602  0.53188463    -0.73700
O37         O  0.26841247  0.13075440  0.52929232    -0.73100
O38         O  0.37176294  0.15008027  0.53336800    -0.73600
O39         O  0.33678752  0.10977437  0.48677241    -0.73500
O40         O  0.33000485  0.13091581  0.45559872    -0.73300
C41         C  0.39571816  0.23115636  0.46405416     0.78500
C42         C  0.32929754  0.22881881  0.53857174     0.79000
C43         C  0.27579260  0.17463147  0.46366075     0.78000
C44         C  0.27193305  0.10857257  0.53571237     0.78400
C45         C  0.39442365  0.17640772  0.53927786     0.79500
C46         C  0.33282175  0.10975726  0.46524011     0.78500
N47         N  0.38373950  0.50322254  0.78363048    -0.35200
N48         N  0.39587762  0.05253182  0.75134130    -0.55800
N49         N  0.38403164  0.50851198  0.71518358    -0.35200
N50         N  0.36958029  0.45931899  0.74727859    -0.55800
C51         C  0.38595002  0.02543486  0.79793190     0.28400
C52         C  0.36979519  0.47603731  0.79508801     0.28400
C53         C  0.38622541  0.03260283  0.70360543     0.28400
C54         C  0.37049438  0.48359655  0.70117680     0.28400
C55         C  0.40631287  0.06964599  0.77072765     0.37000
C56         C  0.40928906  0.07243799  0.73372025     0.37000
C57         C  0.37326419  0.44388565  0.76468753     0.37000
C58         C  0.37283706  0.44678103  0.72780191     0.37000
C59         C  0.37289514  0.01178021  0.81872338    -0.20500
C60         C  0.36166615  0.48075626  0.81669428    -0.20500
C61         C  0.37303598  0.02263037  0.68210255    -0.20500
C62         C  0.36306750  0.49169126  0.68048938    -0.20500
C63         C  0.42417756  0.10074348  0.76519322    -0.21600
C64         C  0.42731414  0.10230640  0.74194539    -0.21500
C65         C  0.37908169  0.42157516  0.75624349    -0.21600
C66         C  0.37822538  0.42306040  0.73277256    -0.21500
C67         C  0.40229078  0.05764237  0.79330222    -0.16900
C68         C  0.36919021  0.44864217  0.78793351    -0.16900
C69         C  0.36894565  0.45530796  0.70568232    -0.16900
C70         C  0.40497154  0.06377032  0.71032694    -0.16900
H71         H  0.37210869  0.02245697  0.83449740     0.16000
H72         H  0.35090801  0.46394946  0.83018553     0.16000
H73         H  0.37222214  0.03670181  0.66846716     0.16000
H74         H  0.35320089  0.47721109  0.66546687     0.16000
H75         H  0.43528455  0.12039460  0.77668423     0.14300
H76         H  0.44146580  0.12323107  0.73242521     0.14300
H77         H  0.38302502  0.40571840  0.76607367     0.14300
H78         H  0.38138663  0.40867091  0.72061783     0.14300
H79         H  0.39593716  0.50755174  0.76843915     0.27600
H80         H  0.39636695  0.51038723  0.72999355     0.27600
N81         N  0.09608477  0.09488089  0.78524479    -0.35200
N82         N  0.07796206  0.12750690  0.75335479    -0.55800
N83         N  0.09714738  0.10313395  0.71690011    -0.35200
N84         N  0.11646419  0.07182588  0.74880085    -0.55800
C85         C  0.09312175  0.11484270  0.79901947     0.28400
C86         C  0.11452633  0.08655373  0.79620022     0.28400
C87         C  0.09512401  0.12595816  0.70639734     0.28400
C88         C  0.11498022  0.09623029  0.70374323     0.28400
C89         C  0.06385389  0.12892814  0.77260262     0.37000
C90         C  0.06384004  0.13269720  0.73559077     0.37000
C91         C  0.11410649  0.05273763  0.76587072     0.37000
C92         C  0.11407624  0.05686109  0.72903736     0.37000
C93         C  0.11025694  0.11984921  0.81884624    -0.20500
C94         C  0.12434022  0.10243887  0.81687260    -0.20500
C95         C  0.11277729  0.13437318  0.68659996    -0.20500
C96         C  0.12507703  0.11530373  0.68480330    -0.20500
C97         C  0.04129712  0.13595075  0.76713502    -0.21600
C98         C  0.04050337  0.13731156  0.74365630    -0.21500
C99         C  0.10956774  0.02515782  0.75692231    -0.21600
C100        C  0.10982000  0.02797970  0.73343204    -0.21500
C101        C  0.07243371  0.12552606  0.79498885    -0.16900
C102        C  0.11859749  0.06177483  0.78913123    -0.16900
C103        C  0.11873787  0.07058162  0.70736798    -0.16900
C104        C  0.07362579  0.13519530  0.71253311    -0.16900
H105        H  0.11186642  0.13402867  0.83338734     0.16000
H106        H  0.13879387  0.10045148  0.82971739     0.16000
H107        H  0.11503156  0.15122035  0.67411216     0.16000
H108        H  0.13884678  0.11473569  0.67076872     0.16000
H109        H  0.02685692  0.13960059  0.77883138     0.14300
H110        H  0.02496293  0.14184471  0.73380699     0.14300
H111        H  0.10680072  0.00542780  0.76634060     0.14300
H112        H  0.10691422  0.01090813  0.72086253     0.14300
H113        H  0.08237589  0.08403116  0.77088555     0.27600
H114        H  0.08314250  0.08958071  0.73024427     0.27600
N115        N  0.50048507  0.35988577  0.78419649    -0.35200
N116        N  0.04840079  0.39609075  0.74993183    -0.55800
N117        N  0.50193357  0.38251665  0.71590952    -0.35200
N118        N  0.45439156  0.35006629  0.74974806    -0.55800
C119        C  0.02594653  0.37441121  0.79780512     0.28400
C120        C  0.47534767  0.35121902  0.79764923     0.28400
C121        C  0.02724393  0.40610586  0.70635511     0.28400
C122        C  0.47683819  0.38131264  0.70613231     0.28400
C123        C  0.06567234  0.39448055  0.76701694     0.37000
C124        C  0.06545258  0.40276604  0.73061870     0.37000
C125        C  0.43600606  0.33226471  0.76681954     0.37000
C126        C  0.43739431  0.34013171  0.73035492     0.37000
C127        C  0.01664474  0.37220368  0.82045240    -0.20500
C128        C  0.48472023  0.35808713  0.82029038    -0.20500
C129        C  0.01824929  0.42056344  0.69050888    -0.20500
C130        C  0.48654872  0.40489277  0.69028170    -0.20500
C131        C  0.09388231  0.40019448  0.75846037    -0.21600
C132        C  0.09296885  0.40365091  0.73522912    -0.21500
C133        C  0.40717786  0.31065986  0.75826967    -0.21600
C134        C  0.40853252  0.31470338  0.73495949    -0.21500
C135        C  0.05728798  0.39146860  0.79035115    -0.16900
C136        C  0.44420802  0.33827044  0.79008913    -0.16900
C137        C  0.44566878  0.35772641  0.71006526    -0.16900
C138        C  0.05801752  0.41248570  0.71008810    -0.16900
H139        H  0.03121360  0.38100769  0.83552617     0.16000
H140        H  0.47024841  0.35369595  0.83516354     0.16000
H141        H  0.03317632  0.43995728  0.67974371     0.16000
H142        H  0.47208065  0.40980333  0.67942188     0.16000
H143        H  0.11342860  0.40205236  0.76760996     0.14300
H144        H  0.11148626  0.40854928  0.72340200     0.14300
H145        H  0.38706708  0.29406321  0.76767073     0.14300
H146        H  0.38949718  0.30216568  0.72308643     0.14300
H147        H  0.50051936  0.35618271  0.76670635     0.27600
H148        H  0.50152329  0.36552231  0.72630460     0.27600
C149        C  0.01537208  0.19416778  0.60503188     0.03700
C150        C  0.48245767  0.17817253  0.60504514     0.03600
C151        C  0.46634638  0.15837302  0.62314038    -0.16900
C152        C  0.48174606  0.15338025  0.64102845     0.03700
C153        C  0.01458624  0.16886850  0.64104749     0.03600
C154        C  0.03090607  0.18930305  0.62317249    -0.16900
H155        H  0.05600154  0.20105277  0.62312007     0.05700
H156        H  0.44120616  0.14603532  0.62302087     0.05700
C157        C  0.18230195  0.01805105  0.59962402     0.03700
C158        C  0.17071068  0.48571183  0.60069452     0.03600
C159        C  0.15309194  0.46921990  0.61970456    -0.16900
C160        C  0.14489427  0.48326378  0.63694627     0.03700
C161        C  0.15543358  0.01527400  0.63542474     0.03600
C162        C  0.17428901  0.03218892  0.61700675    -0.16900
H163        H  0.18268626  0.05674973  0.61609146     0.05700
H164        H  0.14493947  0.44472321  0.62080479     0.05700
C165        C  0.33950717  0.32173216  0.89830373     0.03700
C166        C  0.32390443  0.33864972  0.89739823     0.03600
C167        C  0.33008858  0.35876994  0.87885675    -0.16900
C168        C  0.35006027  0.36132424  0.86090353     0.03700
C169        C  0.36466496  0.34333707  0.86142706     0.03600
C170        C  0.35993452  0.32487394  0.88067474    -0.16900
H171        H  0.37169415  0.31179413  0.88167402     0.05700
H172        H  0.31864926  0.37216367  0.87810944     0.05700
C173        C  0.32584356  0.31251277  0.60575298     0.03700
C174        C  0.31606737  0.33402699  0.60196541     0.03600
C175        C  0.32463281  0.35807913  0.61773935    -0.16900
C176        C  0.34269898  0.36136071  0.63714445     0.03700
C177        C  0.35244629  0.33962054  0.64105721     0.03600
C178        C  0.34246845  0.31474204  0.62566549    -0.16900
H179        H  0.34964288  0.29793899  0.62834385     0.05700
H180        H  0.31695969  0.37447261  0.61491713     0.05700
C181        C  0.18290812  0.01112885  0.89647978     0.03700
C182        C  0.16920053  0.47859320  0.89756191     0.03600
C183        C  0.14978919  0.46006379  0.87966338    -0.16900
C184        C  0.14230328  0.47257742  0.86112726     0.03700
C185        C  0.15459001  0.00492488  0.86064919     0.03600
C186        C  0.17494487  0.02370038  0.87803049    -0.16900
H187        H  0.18462384  0.04849608  0.87723359     0.05700
H188        H  0.13948317  0.43518544  0.88058884     0.05700
C189        C  0.48382804  0.17781829  0.89756205     0.03700
C190        C  0.01466096  0.18543282  0.90135291     0.03600
C191        C  0.02831760  0.17432300  0.88611737    -0.16900
C192        C  0.01227255  0.15604599  0.86697166     0.03700
C193        C  0.48091384  0.14849238  0.86297018     0.03600
C194        C  0.46853668  0.16178500  0.87761746    -0.16900
H195        H  0.44559786  0.15804280  0.87438905     0.05700
H196        H  0.05215946  0.18045444  0.88905299     0.05700
Zn197      Zn  0.20637131  0.33721909  0.48793055     1.49700
Zn198      Zn  0.16509775  0.36953530  0.48782062     1.49400
Zn199      Zn  0.13179305  0.29517587  0.49027819     1.49100
Zn200      Zn  0.16940365  0.33629935  0.53296515     1.49500
O201        O  0.16828421  0.33466703  0.49961476    -1.82700
O202        O  0.23201857  0.37652623  0.46904039    -0.73400
O203        O  0.12537407  0.35340998  0.46941903    -0.73200
O204        O  0.14454660  0.26828460  0.47306704    -0.72700
O205        O  0.20090112  0.39590958  0.46677770    -0.73400
O206        O  0.19492367  0.30042498  0.46724516    -0.73000
O207        O  0.10504007  0.30238447  0.46847808    -0.73600
O208        O  0.13009833  0.30161688  0.54693125    -0.72900
O209        O  0.16730530  0.39842755  0.51345063    -0.73700
O210        O  0.10388025  0.27246876  0.51728839    -0.73100
O211        O  0.17311025  0.37607347  0.54408263    -0.73600
O212        O  0.20572775  0.33331288  0.54490483    -0.73500
O213        O  0.23227302  0.33489430  0.51404918    -0.73300
C214        C  0.22592939  0.39668296  0.46144600     0.78500
C215        C  0.10468013  0.32652372  0.46256533     0.79000
C216        C  0.17011868  0.27459692  0.46379455     0.78000
C217        C  0.10604517  0.27811808  0.53872477     0.78400
C218        C  0.17152197  0.39822369  0.53496889     0.79500
C219        C  0.22855792  0.33284081  0.53570772     0.78500
Zn220      Zn  0.20969794  0.36955171  0.98878652     1.49700
Zn221      Zn  0.16977470  0.29540792  0.98801431     1.49400
Zn222      Zn  0.17256801  0.33355302  0.03377005     1.49100
Zn223      Zn  0.13508756  0.33473290  0.99075177     1.49500
O224        O  0.17181074  0.33315098  0.00028277    -1.82700
O225        O  0.23566253  0.35706300  0.96961575    -0.73400
O226        O  0.17091758  0.26936173  0.01405629    -0.73200
O227        O  0.21116566  0.37202912  0.04567727    -0.72700
O228        O  0.20659576  0.30586600  0.96710374    -0.73400
O229        O  0.23625650  0.39745511  0.01463966    -0.73000
O230        O  0.17257940  0.29588963  0.04493304    -0.73600
O231        O  0.10840267  0.33326843  0.01752544    -0.72900
O232        O  0.12973963  0.26962111  0.96975877    -0.73700
O233        O  0.13430029  0.33176397  0.04775403    -0.73100
O234        O  0.10743898  0.29822730  0.97070484    -0.73600
O235        O  0.14792302  0.37322418  0.97235116    -0.73500
O236        O  0.19865950  0.39579910  0.96934739    -0.73300
C237        C  0.23105365  0.33119550  0.96200090     0.78500
C238        C  0.17190778  0.27250843  0.03576356     0.79000
C239        C  0.23390829  0.39551343  0.03633627     0.78000
C240        C  0.11084153  0.33162507  0.03911068     0.78400
C241        C  0.10776433  0.27420172  0.96412792     0.79500
C242        C  0.17347357  0.39511130  0.96472859     0.78500
N243        N  0.00264322  0.11119607  0.28497717    -0.35200
N244        N  0.04446855  0.12065729  0.24851864    -0.55800
N245        N  0.99334365  0.10142805  0.21610125    -0.35200
N246        N  0.45228332  0.09527635  0.25310782    -0.55800
C247        C  0.03021427  0.12767324  0.29576081     0.28400
C248        C  0.48114213  0.11134922  0.29869037     0.28400
C249        C  0.01799160  0.11261486  0.20176901     0.28400
C250        C  0.46857948  0.09745629  0.20373154     0.28400
C251        C  0.06181122  0.12130971  0.26646789     0.37000
C252        C  0.05693381  0.11580675  0.22967818     0.37000
C253        C  0.43601822  0.08813045  0.27282552     0.37000
C254        C  0.43137718  0.08656045  0.23591719     0.37000
C255        C  0.02625512  0.13925625  0.31630487    -0.20500
C256        C  0.49491402  0.12825357  0.31836444    -0.20500
C257        C  0.00880634  0.11595330  0.18017782    -0.20500
C258        C  0.47768454  0.10493943  0.18107918    -0.20500
C259        C  0.08537524  0.11675123  0.25904754    -0.21600
C260        C  0.08230498  0.11331837  0.23564801    -0.21500
C261        C  0.40490068  0.07610688  0.26820708    -0.21600
C262        C  0.40214210  0.07636442  0.24492721    -0.21500
C263        C  0.05754072  0.12817756  0.28913461    -0.16900
C264        C  0.44915087  0.09365003  0.29494401    -0.16900
C265        C  0.43798175  0.08653151  0.21227342    -0.16900
C266        C  0.04776938  0.11720005  0.20706936    -0.16900
H267        H  0.04376078  0.15272353  0.32904208     0.16000
H268        H  0.48351698  0.13175866  0.33280585     0.16000
H269        H  0.02269396  0.12425869  0.16487217     0.16000
H270        H  0.46395624  0.10280188  0.16624684     0.16000
H271        H  0.10309784  0.11656035  0.26942356     0.14300
H272        H  0.09717056  0.10996683  0.22413185     0.14300
H273        H  0.38615752  0.06866746  0.28024276     0.14300
H274        H  0.38070589  0.06893772  0.23575339     0.14300
H275        H  0.99773848  0.09619973  0.27119528     0.27600
H276        H  0.99268729  0.09377993  0.23264396     0.27600
N277        N  0.39148407  0.39491974  0.28482279    -0.35200
N278        N  0.41671408  0.37008698  0.25173502    -0.55800
N279        N  0.40652233  0.40240142  0.21556605    -0.35200
N280        N  0.38279980  0.42902531  0.24810093    -0.55800
C281        C  0.40718960  0.38593168  0.29867767     0.28400
C282        C  0.38744574  0.41600060  0.29651975     0.28400
C283        C  0.42566857  0.39406023  0.20569329     0.28400
C284        C  0.40793639  0.42584089  0.20325688     0.28400
C285        C  0.41337357  0.35282020  0.27029462     0.37000
C286        C  0.41645012  0.35368935  0.23324505     0.37000
C287        C  0.36494716  0.43069447  0.26482653     0.37000
C288        C  0.37318556  0.43479651  0.22799508     0.37000
C289        C  0.41221028  0.40081425  0.31969893    -0.20500
C290        C  0.40048748  0.42025581  0.31813665    -0.20500
C291        C  0.44029416  0.41320365  0.18721573    -0.20500
C292        C  0.42856429  0.43274804  0.18535521    -0.20500
C293        C  0.41077264  0.32510229  0.26347361    -0.21600
C294        C  0.41080000  0.32492765  0.23994605    -0.21500
C295        C  0.34356381  0.43714281  0.25527315    -0.21600
C296        C  0.34876167  0.43973648  0.23200699    -0.21500
C297        C  0.41636508  0.36409748  0.29292474    -0.16900
C298        C  0.37009763  0.42946070  0.28866195    -0.16900
C299        C  0.38807486  0.43799288  0.20656540    -0.16900
C300        C  0.42651718  0.36694767  0.21136753    -0.16900
H301        H  0.42312214  0.39804207  0.33474954     0.16000
H302        H  0.40101211  0.43536682  0.33161454     0.16000
H303        H  0.45639067  0.41205788  0.17550335     0.16000
H304        H  0.43401205  0.44939043  0.17189481     0.16000
H305        H  0.40961741  0.30692885  0.27387077     0.14300
H306        H  0.40969164  0.30682708  0.22913875     0.14300
H307        H  0.32650994  0.44039543  0.26418741     0.14300
H308        H  0.33652326  0.44558395  0.21963030     0.14300
H309        H  0.38174627  0.38533054  0.26896414     0.27600
H310        H  0.38989678  0.38975141  0.22789281     0.27600
C311        C  0.33421309  0.02110549  0.40168600     0.03700
C312        C  0.31247476  0.48925940  0.39737979     0.03600
C313        C  0.31461564  0.47568919  0.37680572    -0.16900
C314        C  0.33895036  0.49157497  0.36104846     0.03700
C315        C  0.36091129  0.02359558  0.36584367     0.03600
C316        C  0.35764916  0.03744291  0.38571524    -0.16900
H317        H  0.37368129  0.06186499  0.38869269     0.05700
H318        H  0.29734352  0.45178719  0.37345628     0.05700
N319        N  0.11781343  0.00275507  0.28451386    -0.35200
N320        N  0.13772470  0.04866008  0.24911253    -0.55800
N321        N  0.11042569  0.99925608  0.21629588    -0.35200
N322        N  0.09138813  0.45333009  0.25165227    -0.55800
C323        C  0.14005705  0.02881412  0.29476023     0.28400
C324        C  0.11568661  0.47841276  0.29599648     0.28400
C325        C  0.12850158  0.02371322  0.20296440     0.28400
C326        C  0.10297749  0.47360101  0.20411279     0.28400
C327        C  0.14144859  0.06642503  0.26757030     0.37000
C328        C  0.13731848  0.06447067  0.23069934     0.37000
C329        C  0.07679881  0.43860426  0.27105179     0.37000
C330        C  0.07302986  0.43644975  0.23403076     0.37000
C331        C  0.15311551  0.02121247  0.31259952    -0.20500
C332        C  0.13838433  0.48923620  0.31287700    -0.20500
C333        C  0.13352750  0.01344145  0.18220177    -0.20500
C334        C  0.11702905  0.48165165  0.18288624    -0.20500
C335        C  0.14360646  0.09385723  0.26093604    -0.21600
C336        C  0.14106680  0.09265583  0.23746793    -0.21500
C337        C  0.04854312  0.41255678  0.26559158    -0.21600
C338        C  0.04676500  0.41096541  0.24204602    -0.21500
C339        C  0.14543316  0.05866043  0.28990866    -0.16900
C340        C  0.09080980  0.44761786  0.29305965    -0.16900
C341        C  0.08066501  0.44356840  0.21082447    -0.16900
C342        C  0.13627757  0.05437520  0.20796920    -0.16900
H343        H  0.17081074  0.03701240  0.32442190     0.16000
H344        H  0.14235762  0.47554785  0.32515388     0.16000
H345        H  0.14628764  0.02738348  0.16769095     0.16000
H346        H  0.11474014  0.46623564  0.16903316     0.16000
H347        H  0.14784741  0.11317708  0.27173332     0.14300
H348        H  0.14313062  0.11096145  0.22662602     0.14300
H349        H  0.03132846  0.39612576  0.27720885     0.14300
H350        H  0.02843053  0.39363437  0.23166865     0.14300
H351        H  0.10165230  0.00170053  0.27270941     0.27600
H352        H  0.09951928  0.99986340  0.23128874     0.27600
C353        C  0.32633529  0.49088626  0.09691878     0.03700
C354        C  0.33030802  0.02023544  0.10048674     0.03600
C355        C  0.34288183  0.03554261  0.12120302    -0.16900
C356        C  0.35514134  0.02414078  0.13755833     0.03700
C357        C  0.35331067  0.49518546  0.13327930     0.03600
C358        C  0.33891962  0.47927021  0.11279864    -0.16900
H359        H  0.33617902  0.45675234  0.10955649     0.05700
H360        H  0.34340507  0.05705413  0.12433874     0.05700
C361        C  0.16888366  0.18580310  0.39868417     0.03700
C362        C  0.18741370  0.17187999  0.39942579     0.03600
C363        C  0.18563932  0.15228949  0.38150423    -0.16900
C364        C  0.16524172  0.14546751  0.36321411     0.03700
C365        C  0.14652516  0.15899133  0.36260102     0.03600
C366        C  0.14849124  0.17890424  0.38019517    -0.16900
H367        H  0.13398556  0.18915779  0.37946665     0.05700
H368        H  0.19972482  0.14156315  0.38213322     0.05700
C369        C  0.17992073  0.16333999  0.09777580     0.03700
C370        C  0.16192892  0.17778560  0.09822634     0.03600
C371        C  0.14047815  0.17077495  0.11593200    -0.16900
C372        C  0.13722290  0.15026040  0.13328136     0.03700
C373        C  0.15620671  0.13701150  0.13316994     0.03600
C374        C  0.17708284  0.14341885  0.11541873    -0.16900
H375        H  0.19106492  0.13256280  0.11521586     0.05700
H376        H  0.12647653  0.18158987  0.11632662     0.05700
C377        C  0.01815683  0.33005031  0.39874421     0.03700
C378        C  0.48572216  0.31872554  0.39980770     0.03600
C379        C  0.47165149  0.32688590  0.38254734    -0.16900
C380        C  0.48834752  0.34527573  0.36379692     0.03700
C381        C  0.02112706  0.35709089  0.36324667     0.03600
C382        C  0.03514230  0.34918094  0.38054733    -0.16900
H383        H  0.06001101  0.35867061  0.38005007     0.05700
H384        H  0.44696951  0.31817064  0.38354393     0.05700
C385        C  0.48551155  0.30779927  0.10324512     0.03700
C386        C  0.01826808  0.32794721  0.10204327     0.03600
C387        C  0.03324454  0.34986987  0.11962630    -0.16900
C388        C  0.01693922  0.35235713  0.13829595     0.03700
C389        C  0.48442822  0.33172559  0.13985154     0.03600
C390        C  0.46951427  0.30944679  0.12247634    -0.16900
H391        H  0.44470386  0.29376195  0.12345979     0.05700
H392        H  0.05810470  0.36536563  0.11872011     0.05700
C393        C  0.04216817  0.37995098  0.34615524    -0.03900
C394        C  0.05926937  0.41137887  0.35229454    -0.01100
C395        C  0.07422977  0.43386102  0.33525904     0.03900
C396        C  0.07836968  0.42498972  0.31289490    -0.03900
C397        C  0.06846115  0.39321097  0.30931044    -0.01000
C398        C  0.04799001  0.37067349  0.32492922     0.03900
C399        C  0.56002312  0.42078669  0.37606201     0.38600
C400        C  0.07996785  0.38368982  0.29005417     0.38600
C401        C  0.03369757  0.33805291  0.31954990     0.37000
C402        C  0.08400418  0.46540742  0.34150043     0.37000
N403        N  0.02209818  0.31195534  0.31535237    -0.37800
N404        N  0.59168475  0.49030325  0.34782719    -0.37800
N405        N  0.08923092  0.37603496  0.27477762    -0.37300
N406        N  0.56101874  0.42804732  0.39501519    -0.42100
C407        C  0.03459622  0.37678135  0.15613602    -0.03900
C408        C  0.02768243  0.40038175  0.16026943    -0.01100
C409        C  0.04110008  0.42063267  0.17909260     0.03900
C410        C  0.06387832  0.41959145  0.19264165    -0.03900
C411        C  0.07218729  0.39722731  0.18781461    -0.01000
C412        C  0.05752895  0.37578465  0.16974057     0.03900
C413        C  0.00772411  0.40469206  0.14463002     0.38600
C414        C  0.09580199  0.39628662  0.20156384     0.38600
C415        C  0.06577690  0.35240332  0.16545493     0.37000
C416        C  0.03043277  0.44165756  0.18518819     0.37000
N417        N  0.07242182  0.33378206  0.16211446    -0.37800
N418        N  0.02132333  0.45785134  0.19038915    -0.37800
N419        N  0.11462585  0.39559222  0.21260011    -0.37300
N420        N  0.99210373  0.40846171  0.13205739    -0.37300
C421        C  0.16238771  0.12269331  0.34548638    -0.03900
C422        C  0.18452074  0.13122305  0.32789586    -0.01100
C423        C  0.18008054  0.10983961  0.31032805     0.03900
C424        C  0.15219920  0.08091491  0.30923276    -0.03900
C425        C  0.12986208  0.07314034  0.32654091    -0.01000
C426        C  0.13656293  0.09250412  0.34568978     0.03900
C427        C  0.21192535  0.16177498  0.32803984     0.38600
C428        C  0.09878846  0.04694144  0.32358361     0.38600
C429        C  0.11827143  0.08036183  0.36622741     0.37000
C430        C  0.20370373  0.11788495  0.29309112     0.37000
N431        N  0.10420626  0.06996802  0.38278170    -0.37800
N432        N  0.22242451  0.12431405  0.27921408    -0.37800
N433        N  0.07370775  0.02667988  0.32083157    -0.37300
N434        N  0.23383400  0.18615634  0.32817476    -0.37300
C435        C  0.14254020  0.07593017  0.18851099    -0.03900
C436        C  0.17089452  0.10437184  0.18703270    -0.01100
C437        C  0.17527648  0.12509177  0.16928907     0.03900
C438        C  0.15362387  0.11536561  0.15120325    -0.03900
C439        C  0.12850056  0.08498790  0.15070354    -0.01000
C440        C  0.12073304  0.06708107  0.17045810     0.03900
C441        C  0.19566939  0.11197722  0.20330326     0.38600
C442        C  0.11271916  0.07113059  0.12933035     0.38600
C443        C  0.08991311  0.04030694  0.17220595     0.37000
C444        C  0.20219143  0.15597703  0.16936747     0.37000
N445        N  0.06499169  0.01937772  0.17331497    -0.37800
N446        N  0.22363828  0.18066766  0.16947927    -0.37800
N447        N  0.10091153  0.05955207  0.11215028    -0.37300
N448        N  0.21543335  0.11782790  0.21624461    -0.37300
C449        C  0.43523441  0.35800789  0.30999261    -0.03900
C450        C  0.42452511  0.32860934  0.31977690    -0.01100
C451        C  0.44371591  0.32405267  0.33514290     0.03900
C452        C  0.47053164  0.34983398  0.34483097    -0.03900
C453        C  0.47829667  0.37960505  0.33730607    -0.01000
C454        C  0.46385049  0.38298955  0.31778810     0.03900
C455        C  0.39335110  0.30341951  0.31518506     0.38600
C456        C  0.49551762  0.40642404  0.35186346     0.38600
C457        C  0.47754009  0.41291146  0.30675159     0.37000
C458        C  0.43519312  0.29278701  0.34135836     0.37000
N459        N  0.48838577  0.43673377  0.29793915    -0.37800
N460        N  0.42845252  0.26791197  0.34644897    -0.37800
N461        N  0.50759888  0.42838588  0.36324693    -0.37300
N462        N  0.36853252  0.28312773  0.31156506    -0.37300
C463        C  0.43805741  0.35260654  0.19385600    -0.03900
C464        C  0.46085027  0.34456819  0.19918905    -0.01100
C465        C  0.47267179  0.33364934  0.18187310     0.03900
C466        C  0.46535526  0.33451841  0.15866587    -0.03900
C467        C  0.44083001  0.33987303  0.15354820    -0.01000
C468        C  0.42630828  0.34722569  0.17115900     0.03900
C469        C  0.47197348  0.34650409  0.22238847     0.38600
C470        C  0.43080148  0.33881377  0.13011262     0.38600
C471        C  0.39907346  0.34921879  0.16578096     0.37000
C472        C  0.99113334  0.31977502  0.18787717     0.37000
N473        N  0.37747777  0.35098142  0.16147292    -0.37800
N474        N  0.00528170  0.30832590  0.19300900    -0.37800
N475        N  0.42228684  0.33786969  0.11155580    -0.37300
N476        N  0.47987066  0.34642960  0.24100666    -0.37300
C477        C  0.35812001  0.44359672  0.30606154    -0.03900
C478        C  0.34278123  0.42759602  0.32621404    -0.01100
C479        C  0.33872904  0.44362141  0.34467628     0.03900
C480        C  0.34234263  0.47341314  0.34131515    -0.03900
C481        C  0.35052632  0.48581476  0.31902601    -0.01000
C482        C  0.36319115  0.47378412  0.30335279     0.03900
C483        C  0.33169411  0.39483587  0.32828645     0.38600
C484        C  0.34378384  0.00879296  0.31163056     0.38600
C485        C  0.38499692  0.49427664  0.28660074     0.37000
C486        C  0.33226931  0.42950267  0.36710619     0.37000
N487        N  0.40372964  0.01105736  0.27408547    -0.37800
N488        N  0.32702779  0.41809386  0.38495659    -0.37800
N489        N  0.33729427  0.02647725  0.30507562    -0.37300
N490        N  0.32269563  0.36867710  0.32995443    -0.37300
C491        C  0.36378205  0.47937248  0.15030333    -0.03900
C492        C  0.34249928  0.44922685  0.15849694    -0.01100
C493        C  0.35135995  0.43533878  0.17561136     0.03900
C494        C  0.38058131  0.45205003  0.18644536    -0.03900
C495        C  0.40217871  0.48173903  0.17800121    -0.01000
C496        C  0.39443979  0.49439742  0.15917356     0.03900
C497        C  0.31070824  0.43266869  0.15037723     0.38600
C498        C  0.43193895  0.49992184  0.18930673     0.38600
C499        C  0.41827040  0.02281468  0.14892175     0.37000
C500        C  0.33001079  0.40372215  0.18243831     0.37000
N501        N  0.43723208  0.04542000  0.14061072    -0.37800
N502        N  0.31308144  0.37852042  0.18792271    -0.37800
N503        N  0.45564216  0.01457135  0.19857872    -0.37300
N504        N  0.28522346  0.41897606  0.14419207    -0.37300
C505        C  0.42904170  0.07848364  0.31516290    -0.03900
C506        C  0.40907969  0.08821428  0.32360457    -0.01100
C507        C  0.38702223  0.07059205  0.34038749     0.03900
C508        C  0.38645199  0.04437116  0.35004494    -0.03900
C509        C  0.40976396  0.03783164  0.34406216    -0.01000
C510        C  0.42963963  0.05347922  0.32569015     0.03900
C511        C  0.41041366  0.11557031  0.31427736     0.38600
C512        C  0.41224188  0.51456134  0.35650271     0.38600
C513        C  0.44853691  0.04186229  0.31625659     0.37000
C514        C  0.36365348  0.07830595  0.34643048     0.37000
N515        N  0.46252506  0.03167920  0.30818818    -0.37800
N516        N  0.34499724  0.08444014  0.35119849    -0.37800
N517        N  0.41468170  0.49613779  0.36658171    -0.37300
N518        N  0.41149219  0.13733497  0.30671317    -0.37300
C519        C  0.37011744  0.04345209  0.15859783    -0.03900
C520        C  0.36391151  0.02928883  0.18012079    -0.01100
C521        C  0.38689182  0.04212332  0.19711651     0.03900
C522        C  0.41122436  0.07326290  0.19555742    -0.03900
C523        C  0.41020826  0.09095029  0.17729197    -0.01000
C524        C  0.39260785  0.07561212  0.15758694     0.03900
C525        C  0.33437464  0.00170350  0.18466159     0.38600
C526        C  0.42866957  0.12444132  0.17822808     0.38600
C527        C  0.39955278  0.09282458  0.13645989     0.37000
C528        C  0.38634902  0.02236703  0.21504820     0.37000
N529        N  0.40525267  0.10687750  0.11972388    -0.37800
N530        N  0.38606657  0.00651637  0.22933792    -0.37800
N531        N  0.44353654  0.15112834  0.17905113    -0.37300
N532        N  0.31045915  0.48013099  0.18856398    -0.37300
C533        C  0.08165997  0.13526504  0.30711755    -0.03900
C534        C  0.07330836  0.11754277  0.32738536    -0.01100
C535        C  0.09330576  0.12783327  0.34633620     0.03900
C536        C  0.12406594  0.15194727  0.34380275    -0.03900
C537        C  0.13334032  0.16895952  0.32335355    -0.01000
C538        C  0.11170703  0.16161528  0.30547220     0.03900
C539        C  0.04412172  0.08873202  0.32905062     0.38600
C540        C  0.16457894  0.19509380  0.32130571     0.38600
C541        C  0.12005314  0.18206158  0.28605115     0.37000
C542        C  0.08147382  0.11521218  0.36879259     0.37000
N543        N  0.12708977  0.19886061  0.27080415    -0.37800
N544        N  0.07167665  0.10567319  0.38674798    -0.37800
N545        N  0.18945962  0.21603842  0.31969874    -0.37300
N546        N  0.02119507  0.06547979  0.33096373    -0.37300
C547        C  0.07112727  0.12547595  0.18815583    -0.03900
C548        C  0.06421883  0.10623896  0.16860978    -0.01100
C549        C  0.08411691  0.11671940  0.14959596     0.03900
C550        C  0.11398419  0.14291628  0.15165447    -0.03900
C551        C  0.12194262  0.16132191  0.17157445    -0.01000
C552        C  0.09985279  0.15377364  0.18903106     0.03900
C553        C  0.03660852  0.07581911  0.16781040     0.38600
C554        C  0.15258515  0.18841848  0.17388063     0.38600
C555        C  0.10633339  0.17582356  0.20734063     0.37000
C556        C  0.07301076  0.10190181  0.12749831     0.37000
N557        N  0.11148358  0.19370765  0.22173250    -0.37800
N558        N  0.06381681  0.09059314  0.10973582    -0.37800
N559        N  0.17705501  0.20996207  0.17590946    -0.37300
N560        N  0.01462283  0.05152509  0.16698143    -0.37300
C561        C  0.16635158  0.20192195  0.08149851    -0.03900
C562        C  0.15313100  0.19378963  0.05944874    -0.01100
C563        C  0.15702031  0.21688768  0.04387784     0.03900
C564        C  0.17165302  0.24834421  0.05096701    -0.03900
C565        C  0.18428904  0.25620909  0.07346805    -0.01000
C566        C  0.18180091  0.23317041  0.08846159     0.03900
C567        C  0.13280682  0.16155162  0.05343178     0.38600
C568        C  0.20010983  0.28802943  0.08154130     0.38600
C569        C  0.19401102  0.24157195  0.11159056     0.37000
C570        C  0.14521675  0.20763227  0.02075433     0.37000
N571        N  0.20358541  0.24842476  0.13004494    -0.37800
N572        N  0.13621909  0.19988557  0.00225968    -0.37800
N573        N  0.21247219  0.31329597  0.08815988    -0.37300
N574        N  0.11565937  0.13611287  0.04837727    -0.37300
C575        C  0.08571903  0.32937628  0.05445713    -0.03900
C576        C  0.07313474  0.34870431  0.05100251    -0.01100
C577        C  0.04982555  0.34700837  0.06568367     0.03900
C578        C  0.03856698  0.32590010  0.08405807    -0.03900
C579        C  0.05195875  0.30739452  0.08799705    -0.01000
C580        C  0.07467237  0.30847051  0.07300280     0.03900
C581        C  0.08587294  0.37217119  0.03340258     0.38600
C582        C  0.04466656  0.28941026  0.10878112     0.38600
C583        C  0.08665658  0.28793776  0.07682157     0.37000
C584        C  0.03958202  0.36907483  0.06296048     0.37000
N585        N  0.09613835  0.27150539  0.07990180    -0.37800
N586        N  0.03243013  0.38745290  0.06056219    -0.37800
N587        N  0.03967473  0.27564797  0.12560023    -0.37300
N588        N  0.09625128  0.39111987  0.01954426    -0.37300
C589        C  0.30291066  0.46865939  0.08023594    -0.03900
C590        C  0.31146646  0.46333516  0.05849627    -0.01100
C591        C  0.28910337  0.43993671  0.04393507     0.03900
C592        C  0.25778193  0.42133742  0.05112054    -0.03900
C593        C  0.24931790  0.42760369  0.07278622    -0.01000
C594        C  0.27181193  0.45054861  0.08732765     0.03900
C595        C  0.34352281  0.48119869  0.05136270     0.38600
C596        C  0.21723383  0.41117191  0.08015228     0.38600
C597        C  0.26306059  0.45470296  0.11016564     0.37000
C598        C  0.29889356  0.43481742  0.02181317     0.37000
N599        N  0.25624462  0.95775062  0.12841907    -0.37800
N600        N  0.30690580  0.43108217  0.00413424    -0.37800
N601        N  0.19167279  0.39817243  0.08605026    -0.37300
N602        N  0.36903220  0.49509172  0.04542581    -0.37300
C603        C  0.17076591  0.20861381  0.41611758    -0.03900
C604        C  0.15689345  0.19884518  0.43784236    -0.01100
C605        C  0.15793085  0.22055707  0.45385106     0.03900
C606        C  0.17080191  0.25187875  0.44769622    -0.03900
C607        C  0.18263964  0.26122863  0.42538898    -0.01000
C608        C  0.18289151  0.23982989  0.40978762     0.03900
C609        C  0.13841611  0.16620386  0.44288845     0.38600
C610        C  0.19249611  0.29238617  0.41787449     0.38600
C611        C  0.19388124  0.24960442  0.38664900     0.37000
C612        C  0.14563783  0.21056874  0.47667119     0.37000
N613        N  0.20228468  0.25732956  0.36812821    -0.37800
N614        N  0.13595579  0.20261354  0.49490353    -0.37800
N615        N  0.19996979  0.31711146  0.41184762    -0.37300
N616        N  0.12255781  0.14030826  0.44710854    -0.37300
C617        C  0.07943137  0.32338960  0.44739140    -0.03900
C618        C  0.06183697  0.33683813  0.45398300    -0.01100
C619        C  0.04111396  0.33827485  0.43840414     0.03900
C620        C  0.03600281  0.32420501  0.41656897    -0.03900
C621        C  0.05252019  0.30920177  0.41042991    -0.01000
C622        C  0.07408279  0.30875383  0.42579216     0.03900
C623        C  0.06505908  0.34920632  0.47697650     0.38600
C624        C  0.04908148  0.29615395  0.38764332     0.38600
C625        C  0.09200116  0.29474385  0.41880798     0.37000
C626        C  0.02823274  0.35753723  0.44407507     0.37000
N627        N  0.10625763  0.28357593  0.41316799    -0.37800
N628        N  0.51800324  0.37276257  0.44949866    -0.37800
N629        N  0.04666012  0.28605748  0.36940246    -0.37300
N630        N  0.06746398  0.35869098  0.49541565    -0.37300
C631        C  0.28994966  0.46813884  0.41500399    -0.03900
C632        C  0.30096152  0.46125823  0.43514859    -0.01100
C633        C  0.28010660  0.43871480  0.45061733     0.03900
C634        C  0.24805519  0.42144926  0.44563468    -0.03900
C635        C  0.23710890  0.42758575  0.42514456    -0.01000
C636        C  0.25782851  0.45075954  0.41000880     0.03900
C637        C  0.33396417  0.47490382  0.43898156     0.38600
C638        C  0.20466699  0.40869577  0.41881894     0.38600
C639        C  0.24611217  0.45532143  0.38857419     0.37000
C640        C  0.29181326  0.43360874  0.47182972     0.37000
N641        N  0.23663047  0.45850403  0.37137390    -0.37800
N642        N  0.30137546  0.42992364  0.48879571    -0.37800
N643        N  0.17884806  0.39350290  0.41369412    -0.37300
N644        N  0.36012630  0.48473945  0.44217882    -0.37300
C645        C  0.03506628  0.20810191  0.91917518    -0.03900
C646        C  0.04317930  0.19800523  0.93911619    -0.01100
C647        C  0.06609913  0.21961063  0.95422620     0.03900
C648        C  0.08214215  0.25146373  0.94907654    -0.03900
C649        C  0.07410886  0.26160219  0.92908577    -0.01000
C650        C  0.05087638  0.24004257  0.91416433     0.03900
C651        C  0.02953353  0.16528057  0.94346761     0.38600
C652        C  0.09107738  0.29411830  0.92308870     0.38600
C653        C  0.04535725  0.25060226  0.89257937     0.37000
C654        C  0.07268387  0.20897463  0.97533253     0.37000
N655        N  0.04162604  0.25931502  0.87525449    -0.37800
N656        N  0.07749528  0.20028618  0.99225863    -0.37800
N657        N  0.10471499  0.32004377  0.91835711    -0.37300
N658        N  0.01952906  0.13932295  0.94718736    -0.37300
C659        C  0.17229787  0.46176761  0.91750391    -0.03900
C660        C  0.20003349  0.46186225  0.92168394    -0.01100
C661        C  0.20113856  0.44199316  0.93826712     0.03900
C662        C  0.17367985  0.41973809  0.94973418    -0.03900
C663        C  0.14594428  0.42037136  0.94570208    -0.01000
C664        C  0.14542510  0.44120118  0.92986237     0.03900
C665        C  0.22682420  0.48011733  0.90737585     0.38600
C666        C  0.11720423  0.39929449  0.95723412     0.38600
C667        C  0.11633839  0.44008394  0.92520523     0.37000
C668        C  0.23084599  0.44457250  0.94286739     0.37000
N669        N  0.09314670  0.43899577  0.92133193    -0.37800
N670        N  0.25468894  0.44698667  0.94653642    -0.37800
N671        N  0.09404888  0.38246615  0.96611092    -0.37300
N672        N  0.24833005  0.99380060  0.89604282    -0.37300
C673        C  0.25118259  0.32998844  0.55086549    -0.03900
C674        C  0.28347384  0.34790714  0.54693256    -0.01100
C675        C  0.30469734  0.35003507  0.56382393     0.03900
C676        C  0.29424644  0.33053525  0.58311628    -0.03900
C677        C  0.26208659  0.31050964  0.58607938    -0.01000
C678        C  0.24068221  0.31084489  0.57046350     0.03900
C679        C  0.29525575  0.36458449  0.52570516     0.38600
C680        C  0.25080286  0.29123500  0.60624576     0.38600
C681        C  0.20774207  0.29126001  0.57468552     0.37000
C682        C  0.33673082  0.37464132  0.56230754     0.37000
N683        N  0.18148429  0.27582746  0.57816047    -0.37800
N684        N  0.36183466  0.39526110  0.56094926    -0.37800
N685        N  0.24154221  0.27597177  0.62236950    -0.37300
N686        N  0.30502135  0.37723606  0.50857135    -0.37300
C687        C  0.29998913  0.33496924  0.91472734    -0.03900
C688        C  0.30866921  0.34795676  0.93697006    -0.01100
C689        C  0.28596115  0.34508021  0.95281622     0.03900
C690        C  0.25446345  0.33085753  0.94626715    -0.03900
C691        C  0.24577609  0.31833014  0.92396197    -0.01000
C692        C  0.26833173  0.32046701  0.90830459     0.03900
C693        C  0.34108282  0.36693410  0.94304168     0.38600
C694        C  0.21371175  0.30451944  0.91670900     0.38600
C695        C  0.25902877  0.30903545  0.88511165     0.37000
C696        C  0.29498092  0.35632656  0.97609852     0.37000
N697        N  0.25156917  0.30017829  0.86655162    -0.37800
N698        N  0.30210074  0.36493060  0.99474862    -0.37800
N699        N  0.18811951  0.29361461  0.91099671    -0.37300
N700        N  0.36670141  0.38302477  0.94830951    -0.37300
C701        C  0.17452965  0.42396417  0.55011267    -0.03900
C702        C  0.19236036  0.43167589  0.57054564    -0.01100
C703        C  0.19165366  0.45229177  0.58669048     0.03900
C704        C  0.17497530  0.46745966  0.58212438    -0.03900
C705        C  0.15803588  0.46073016  0.56141093    -0.01000
C706        C  0.15805686  0.43944185  0.54539149     0.03900
C707        C  0.21170852  0.41846684  0.57522321     0.38600
C708        C  0.13759297  0.47284442  0.55765887     0.38600
C709        C  0.13962228  0.43245144  0.52466864     0.37000
C710        C  0.20623855  0.45587821  0.60885644     0.37000
N711        N  0.12495489  0.42715517  0.50814967    -0.37800
N712        N  0.21744482  0.45807303  0.62661859    -0.37800
N713        N  0.11985006  0.98087167  0.55516936    -0.37300
N714        N  0.22709920  0.40792045  0.57897101    -0.37300
C715        C  0.08023765  0.25691814  0.55456457    -0.03900
C716        C  0.06184090  0.22479368  0.54977151    -0.01100
C717        C  0.03989009  0.20448181  0.56583070     0.03900
C718        C  0.03478358  0.21590511  0.58648471    -0.03900
C719        C  0.05216136  0.24801810  0.59096170    -0.01000
C720        C  0.07451113  0.26839917  0.57513779     0.03900
C721        C  0.06634482  0.21194910  0.52881821     0.38600
C722        C  0.04822313  0.26002152  0.61254452     0.38600
C723        C  0.09139908  0.30129089  0.58022688     0.37000
C724        C  0.02494881  0.17148433  0.56186203     0.37000
N725        N  0.10486392  0.32748456  0.58438774    -0.37800
N726        N  0.01421544  0.14536435  0.55816775    -0.37800
N727        N  0.04544405  0.26967757  0.62983176    -0.37300
N728        N  0.06967095  0.20154826  0.51209629    -0.37300
C729        C  0.42119697  0.33837850  0.80656155    -0.03900
C730        C  0.39714593  0.31111594  0.81635187    -0.01100
C731        C  0.37688944  0.31279186  0.83246398     0.03900
C732        C  0.38375576  0.34179596  0.84197548    -0.03900
C733        C  0.41033328  0.36862293  0.83389328    -0.01000
C734        C  0.42591151  0.36711541  0.81436997     0.03900
C735        C  0.39412929  0.28157540  0.81075826     0.38600
C736        C  0.42600461  0.39621220  0.84789089     0.38600
C737        C  0.44790472  0.39544393  0.80290797     0.37000
C738        C  0.34966542  0.28445005  0.83973463     0.37000
N739        N  0.46499865  0.41793707  0.79347864    -0.37800
N740        N  0.32804270  0.26178348  0.84559032    -0.37800
N741        N  0.44059656  0.41823887  0.85884976    -0.37300
N742        N  0.39189657  0.25802116  0.80642691    -0.37300
C743        C  0.08105266  0.41287733  0.80741352    -0.03900
C744        C  0.10547243  0.40885956  0.81528195    -0.01100
C745        C  0.12727859  0.43018779  0.83120339     0.03900
C746        C  0.12094710  0.45112024  0.84298067    -0.03900
C747        C  0.09306774  0.45026289  0.83804044    -0.01000
C748        C  0.07678627  0.43585785  0.81797585     0.03900
C749        C  0.10712427  0.38202234  0.80834300     0.38600
C750        C  0.07705548  0.45675972  0.85579518     0.38600
C751        C  0.05420970  0.44331721  0.80934814     0.37000
C752        C  0.15545719  0.42976884  0.83592567     0.37000
N753        N  0.03644816  0.44959094  0.80247438    -0.37800
N754        N  0.17799148  0.42950994  0.83973009    -0.37800
N755        N  0.06277531  0.45982179  0.87002083    -0.37300
N756        N  0.10838542  0.36050931  0.80290079    -0.37300
C757        C  0.12424728  0.46356993  0.65589702    -0.03900
C758        C  0.09507155  0.43737239  0.65089617    -0.01100
C759        C  0.07561933  0.41915555  0.66875605     0.03900
C760        C  0.08234912  0.42941139  0.69181129    -0.03900
C761        C  0.11203027  0.45556487  0.69675199    -0.01000
C762        C  0.13359451  0.47058513  0.67898234     0.03900
C763        C  0.08460527  0.42922143  0.62735426     0.38600
C764        C  0.12127800  0.46718038  0.71989528     0.38600
C765        C  0.16597504  0.49145271  0.68452703     0.37000
C766        C  0.04962468  0.38889046  0.66329549     0.37000
N767        N  0.19219179  0.00761759  0.68926220    -0.37800
N768        N  0.02952511  0.36447679  0.65860339    -0.37800
N769        N  0.12954992  0.47641986  0.73828052    -0.37300
N770        N  0.07629004  0.42294246  0.60857234    -0.37300
C771        C  0.37557279  0.34356342  0.65928589    -0.03900
C772        C  0.40289657  0.34340751  0.65305451    -0.01100
C773        C  0.42385678  0.34521436  0.66990806     0.03900
C774        C  0.42093974  0.35229123  0.69279204    -0.03900
C775        C  0.39415173  0.35332856  0.69905961    -0.01000
C776        C  0.37056816  0.34651224  0.68277367     0.03900
C777        C  0.41011066  0.34166766  0.62924972     0.38600
C778        C  0.39006770  0.35991784  0.72253647     0.38600
C779        C  0.34050900  0.34013338  0.69067791     0.37000
C780        C  0.44702222  0.33732126  0.66386003     0.37000
N781        N  0.31659146  0.33454776  0.69758414    -0.37800
N782        N  0.46456791  0.32984313  0.65884214    -0.37800
N783        N  0.38684606  0.36419003  0.74153289    -0.37300
N784        N  0.41637145  0.34020294  0.61042397    -0.37300
C785        C  0.05910605  0.13318105  0.81513077    -0.03900
C786        C  0.07046518  0.16423289  0.82132814    -0.01100
C787        C  0.05654310  0.17160521  0.83931598     0.03900
C788        C  0.03039303  0.14782109  0.85089831    -0.03900
C789        C  0.02104167  0.11667657  0.84609687    -0.01000
C790        C  0.03491575  0.10938212  0.82796109     0.03900
C791        C  0.09581890  0.18865152  0.80853938     0.38600
C792        C  0.49642825  0.09208154  0.85933124     0.38600
C793        C  0.02300301  0.07735900  0.82160308     0.37000
C794        C  0.06828277  0.20387190  0.84491403     0.37000
N795        N  0.01304863  0.05178414  0.81634040    -0.37800
N796        N  0.07809335  0.22966792  0.84940900    -0.37800
N797        N  0.47670920  0.07254210  0.86983420    -0.37300
N798        N  0.11589145  0.20802370  0.79817358    -0.37300
C799        C  0.12715544  0.04522990  0.80665768    -0.03900
C800        C  0.11106544  0.03608390  0.82772888    -0.01100
C801        C  0.12294828  0.02721112  0.84608629     0.03900
C802        C  0.14612946  0.01977967  0.84218508    -0.03900
C803        C  0.16066911  0.02605795  0.82065517    -0.01000
C804        C  0.15259031  0.04048918  0.80342928     0.03900
C805        C  0.08160069  0.03461154  0.83044831     0.38600
C806        C  0.18480054  0.01875544  0.81665397     0.38600
C807        C  0.17104769  0.05093040  0.78279671     0.37000
C808        C  0.11168235  0.02636634  0.86908291     0.37000
N809        N  0.18578185  0.05899743  0.76631122    -0.37800
N810        N  0.10283247  0.02593005  0.88743812    -0.37800
N811        N  0.20395418  0.01274204  0.81360139    -0.37300
N812        N  0.05789907  0.03299710  0.83269920    -0.37300
C813        C  0.12833079  0.05786282  0.68797858    -0.03900
C814        C  0.15995674  0.06824020  0.68441990    -0.01100
C815        C  0.16898658  0.05516737  0.66679325     0.03900
C816        C  0.14632972  0.03143942  0.65263020    -0.03900
C817        C  0.11485787  0.02266531  0.65530803    -0.01000
C818        C  0.10582484  0.03511324  0.67334300     0.03900
C819        C  0.18313953  0.09211649  0.69919091     0.38600
C820        C  0.09171605  0.50194343  0.63880294     0.38600
C821        C  0.07324059  0.02379021  0.67732136     0.37000
C822        C  0.20157755  0.06573402  0.66360790     0.37000
N823        N  0.04720988  0.01442843  0.68064505    -0.37800
N824        N  0.22757884  0.07414671  0.66110274    -0.37800
N825        N  0.07319128  0.48570028  0.62566855    -0.37300
N826        N  0.20152420  0.11118899  0.71102021    -0.37300
C827        C  0.05985255  0.14552899  0.69390593    -0.03900
C828        C  0.04817663  0.12769557  0.67352599    -0.01100
C829        C  0.03853419  0.13874568  0.65515364     0.03900
C830        C  0.03229359  0.16270935  0.65872147    -0.03900
C831        C  0.04341598  0.18070587  0.67886335    -0.01000
C832        C  0.05910251  0.17340387  0.69568417     0.03900
C833        C  0.04457709  0.09726249  0.67149942     0.38600
C834        C  0.04000158  0.20749995  0.68167768     0.38600
C835        C  0.07481820  0.19487991  0.71439627     0.37000
C836        C  0.03774917  0.12732932  0.63218710     0.37000
N837        N  0.08722467  0.21202630  0.72935895    -0.37800
N838        N  0.03801248  0.11889108  0.61376804    -0.37800
N839        N  0.03732845  0.22894423  0.68378825    -0.37300
N840        N  0.04139628  0.07285756  0.66982911    -0.37300
C841        C  0.42126171  0.07991233  0.81207127    -0.03900
C842        C  0.45371849  0.09795781  0.80949663    -0.01100
C843        C  0.47054453  0.12458691  0.82300856     0.03900
C844        C  0.45957744  0.12566067  0.84498537    -0.03900
C845        C  0.42755785  0.10414997  0.84939076    -0.01000
C846        C  0.40802115  0.08542236  0.83143636     0.03900
C847        C  0.46923100  0.08956126  0.79251979     0.38600
C848        C  0.41423891  0.09977321  0.87202036     0.38600
C849        C  0.37493860  0.07338680  0.83260343     0.37000
C850        C  0.99457310  0.15240475  0.81238413     0.37000
N851        N  0.34852958  0.06379904  0.83355640    -0.37800
N852        N  0.01281684  0.17502211  0.80364596    -0.37800
N853        N  0.40294762  0.09567650  0.88989146    -0.37300
N854        N  0.98027159  0.08100792  0.77907583    -0.37300
C855        C  0.36522845  0.42506478  0.80575172    -0.03900
C856        C  0.34153852  0.39345412  0.80389311    -0.01100
C857        C  0.33778654  0.37228676  0.82129977     0.03900
C858        C  0.35491611  0.38302337  0.84183837    -0.03900
C859        C  0.37596322  0.41490915  0.84461637    -0.01000
C860        C  0.38393105  0.43480918  0.82576580     0.03900
C861        C  0.32045147  0.38261938  0.78450789     0.38600
C862        C  0.38858921  0.42752554  0.86706612     0.38600
C863        C  0.41156276  0.46524471  0.82703316     0.37000
C864        C  0.31506851  0.33969740  0.81871697     0.37000
N865        N  0.43362965  0.48948624  0.82795572    -0.37800
N866        N  0.29698199  0.31365427  0.81679841    -0.37800
N867        N  0.39845830  0.43765845  0.88500012    -0.37300
N868        N  0.30367816  0.37377791  0.76899894    -0.37300
C869        C  0.42389719  0.08696469  0.69222070    -0.03900
C870        C  0.42261225  0.11416633  0.68880699    -0.01100
C871        C  0.44344825  0.13702868  0.67351783     0.03900
C872        C  0.46226562  0.13083474  0.65899345    -0.03900
C873        C  0.45906384  0.10135987  0.65966191    -0.01000
C874        C  0.44325286  0.08134380  0.67779933     0.03900
C875        C  0.39937716  0.11824812  0.70042446     0.38600
C876        C  0.96707027  0.08921016  0.64008202     0.38600
C877        C  0.44715285  0.05497833  0.68134553     0.37000
C878        C  0.44452567  0.16635795  0.67200471     0.37000
N879        N  0.95078451  0.03426466  0.68443221    -0.37800
N880        N  0.44537861  0.18975225  0.67068341    -0.37800
N881        N  0.97152251  0.07814413  0.62422738    -0.37300
N882        N  0.38076592  0.12144580  0.70965004    -0.37300
C883        C  0.36242487  0.43317346  0.68651253    -0.03900
C884        C  0.33150882  0.41121534  0.68088716    -0.01100
C885        C  0.32508297  0.38803799  0.66453841     0.03900
C886        C  0.34968393  0.38718612  0.65327724    -0.03900
C887        C  0.38052788  0.41084472  0.65752751    -0.01000
C888        C  0.38693781  0.43312052  0.67468840     0.03900
C889        C  0.30631603  0.41219089  0.69230321     0.38600
C890        C  0.40561254  0.41270156  0.64395074     0.38600
C891        C  0.41879121  0.45512507  0.68081090     0.37000
C892        C  0.29312317  0.36425311  0.66013298     0.37000
N893        N  0.44434826  0.47214266  0.68574989    -0.37800
N894        N  0.26766627  0.34526538  0.65665148    -0.37800
N895        N  0.42568963  0.41440269  0.63306918    -0.37300
N896        N  0.28627192  0.41314354  0.70132103    -0.37300
C897        C  0.46314566  0.18013484  0.58651370    -0.03900
C898        C  0.45432936  0.20268829  0.58770252    -0.01100
C899        C  0.43174570  0.20140107  0.57246906     0.03900
C900        C  0.41851177  0.17807599  0.55531379    -0.03900
C901        C  0.42708752  0.15522753  0.55452344    -0.01000
C902        C  0.44782090  0.15532129  0.57084678     0.03900
C903        C  0.46576285  0.22506273  0.60630690     0.38600
C904        C  0.41425356  0.13099557  0.53725270     0.38600
C905        C  0.45036044  0.12794113  0.57323403     0.37000
C906        C  0.42017470  0.22238936  0.57594260     0.37000
N907        N  0.95065508  0.10515982  0.57605537    -0.37800
N908        N  0.41068227  0.23885050  0.57896593    -0.37800
N909        N  0.40406085  0.11143873  0.52365984    -0.37300
N910        N  0.47420115  0.24255516  0.62136498    -0.37300
C911        C  0.33167284  0.08460730  0.45093176    -0.03900
C912        C  0.30586272  0.06640606  0.43668433    -0.01100
C913        C  0.30629737  0.04508833  0.42103933     0.03900
C914        C  0.33142116  0.03967919  0.42080326    -0.03900
C915        C  0.35695432  0.05747015  0.43568889    -0.01000
C916        C  0.35725656  0.08013641  0.45030092     0.03900
C917        C  0.27900493  0.07014523  0.43774344     0.38600
C918        C  0.38426465  0.05451112  0.43468026     0.38600
C919        C  0.38518668  0.10095126  0.46301014     0.37000
C920        C  0.28295837  0.03229837  0.40317756     0.37000
N921        N  0.40772662  0.11796200  0.47269128    -0.37800
N922        N  0.26431379  0.52394760  0.38836105    -0.37800
N923        N  0.40640421  0.05277592  0.43381457    -0.37300
N924        N  0.25754283  0.07303131  0.43869321    -0.37300
C925        C  0.24783365  0.08329952  0.55055719    -0.03900
C926        C  0.21716768  0.07807905  0.55208254    -0.01100
C927        C  0.19531389  0.05536737  0.56697574     0.03900
C928        C  0.20387820  0.03839363  0.58137532    -0.03900
C929        C  0.23459899  0.04447167  0.58066953    -0.01000
C930        C  0.25585806  0.06533376  0.56461541     0.03900
C931        C  0.20775019  0.09641406  0.53895393     0.38600
C932        C  0.24590359  0.03261910  0.59843219     0.38600
C933        C  0.28654088  0.06903304  0.56375663     0.37000
C934        C  0.16429001  0.05071406  0.56837184     0.37000
N935        N  0.31085152  0.07166297  0.56305104    -0.37800
N936        N  0.13980012  0.54789046  0.56990794    -0.37800
N937        N  0.25619544  0.02471898  0.61278510    -0.37300
N938        N  0.20003725  0.11119805  0.52893143    -0.37300
C939        C  0.42054255  0.25416092  0.44895075    -0.03900
C940        C  0.43705729  0.24513537  0.43435626    -0.01100
C941        C  0.45864882  0.26627606  0.41855208     0.03900
C942        C  0.46519281  0.29716786  0.41798157    -0.03900
C943        C  0.44838590  0.30603919  0.43249769    -0.01000
C944        C  0.42606535  0.28459349  0.44772128     0.03900
C945        C  0.43132676  0.21378009  0.43521405     0.38600
C946        C  0.45257164  0.33675311  0.43082387     0.38600
C947        C  0.40664711  0.29304777  0.46045845     0.37000
C948        C  0.47137126  0.25510680  0.40128268     0.37000
N949        N  0.39077154  0.29977103  0.47010178    -0.37800
N950        N  0.48048810  0.24538049  0.38730920    -0.37800
N951        N  0.95651937  0.36172454  0.42994153    -0.37300
N952        N  0.42672616  0.18876959  0.43586435    -0.37300
C953        C  0.25248055  0.17598236  0.44900298    -0.03900
C954        C  0.22172005  0.15095918  0.44896702    -0.01100
C955        C  0.20001492  0.15032733  0.43338521     0.03900
C956        C  0.20830452  0.17567676  0.41875450    -0.03900
C957        C  0.23871843  0.20141980  0.41957839    -0.01000
C958        C  0.26092726  0.20134894  0.43442063     0.03900
C959        C  0.21290619  0.12476617  0.46388174     0.38600
C960        C  0.24785340  0.22697674  0.40401959     0.38600
C961        C  0.29259589  0.22709702  0.43438437     0.37000
C962        C  0.16999418  0.12233486  0.43105944     0.37000
N963        N  0.31788914  0.24756154  0.43424301    -0.37800
N964        N  0.14633065  0.09972654  0.42909399    -0.37800
N965        N  0.25558089  0.24749526  0.39164426    -0.37300
N966        N  0.20592358  0.10390325  0.47576324    -0.37300
C967        C  0.32699571  0.25022429  0.55510853    -0.03900
C968        C  0.34664906  0.28251705  0.55308564    -0.01100
C969        C  0.34604760  0.30258127  0.56967199     0.03900
C970        C  0.32428485  0.29092368  0.58761181    -0.03900
C971        C  0.30509400  0.25867096  0.59008240    -0.01000
C972        C  0.30622633  0.23837152  0.57382812     0.03900
C973        C  0.36789701  0.29550175  0.53406692     0.38600
C974        C  0.28614739  0.24624647  0.61036229     0.38600
C975        C  0.28726860  0.20524812  0.57726540     0.37000
C976        C  0.37055731  0.33474716  0.56979282     0.37000
N977        N  0.27218759  0.17885067  0.58001905    -0.37800
N978        N  0.39102820  0.35998561  0.57003153    -0.37800
N979        N  0.27149463  0.23604433  0.62670972    -0.37300
N980        N  0.38513787  0.30641781  0.51911428    -0.37300
C981        C  0.24863250  0.07984263  0.94434970    -0.03900
C982        C  0.25781055  0.07759614  0.92193183    -0.01100
C983        C  0.23669883  0.05442807  0.90671677     0.03900
C984        C  0.20591793  0.03331220  0.91363397    -0.03900
C985        C  0.19672040  0.03588623  0.93599973    -0.01000
C986        C  0.21828815  0.05826350  0.95149556     0.03900
C987        C  0.28892926  0.09962205  0.91434386     0.38600
C988        C  0.16459332  0.01715882  0.94270407     0.38600
C989        C  0.20963946  0.05794224  0.97515776     0.37000
C990        C  0.24659806  0.05273624  0.88369450     0.37000
N991        N  0.20267430  0.05677704  0.99414218    -0.37800
N992        N  0.25450822  0.05134089  0.86535460    -0.37800
N993        N  0.13896814  0.00294285  0.94831271    -0.37300
N994        N  0.31375068  0.11724557  0.90834374    -0.37300
C995        C  0.24594536  0.17108837  0.04735467    -0.03900
C996        C  0.25499874  0.19366498  0.06484085    -0.01100
C997        C  0.23304296  0.19203492  0.08070466     0.03900
C998        C  0.20191118  0.16789415  0.07916912    -0.03900
C999        C  0.19301410  0.14503888  0.06198126    -0.01000
C1000       C  0.21456227  0.14748976  0.04548037     0.03900
C1001       C  0.28702749  0.21845428  0.06669898     0.38600
C1002       C  0.16270855  0.11718375  0.06273461     0.38600
C1003       C  0.20451908  0.12467843  0.02727796     0.37000
C1004       C  0.24318861  0.21327692  0.09998828     0.37000
N1005       N  0.19606763  0.10662270  0.01262260    -0.37800
N1006       N  0.25168223  0.22990969  0.11557271    -0.37800
N1007       N  0.13888617  0.09458890  0.06353559    -0.37300
N1008       N  0.31257257  0.23820761  0.06822077    -0.37300
C1009       C  0.41715254  0.17445579  0.94620948    -0.03900
C1010       C  0.43226154  0.19971631  0.93084753    -0.01100
C1011       C  0.45515185  0.20172973  0.91564398     0.03900
C1012       C  0.46393809  0.17917292  0.91594276    -0.03900
C1013       C  0.44838243  0.15360843  0.93072651    -0.01000
C1014       C  0.42537630  0.15130960  0.94582471     0.03900
C1015       C  0.42302467  0.22278466  0.92939465     0.38600
C1016       C  0.45375755  0.12787742  0.92878612     0.38600
C1017       C  0.40976933  0.12444604  0.96048054     0.37000
C1018       C  0.46771345  0.22566111  0.89840446     0.37000
N1019       N  0.39713303  0.10277159  0.97189035    -0.37800
N1020       N  0.97694484  0.24473869  0.88453112    -0.37800
N1021       N  0.45721753  0.10688637  0.92689559    -0.37300
N1022       N  0.41574678  0.24122070  0.92814116    -0.37300
C1023       C  0.32659022  0.03836312  0.08178722    -0.03900
C1024       C  0.35213884  0.05654165  0.06738732    -0.01100
C1025       C  0.35109861  0.07711517  0.05153785     0.03900
C1026       C  0.32496833  0.08071905  0.05041966    -0.03900
C1027       C  0.29977307  0.06332448  0.06530555    -0.01000
C1028       C  0.30056195  0.04219749  0.08086545     0.03900
C1029       C  0.38081634  0.05641307  0.07045375     0.38600
C1030       C  0.27329677  0.06770003  0.06506694     0.38600
C1031       C  0.27541755  0.02600941  0.09690620     0.37000
C1032       C  0.37813689  0.09666644  0.03776532     0.37000
N1033       N  0.25522493  0.01367170  0.10972012    -0.37800
N1034       N  0.39970428  0.11253847  0.02689503    -0.37800
N1035       N  0.25221485  0.07125267  0.06508870    -0.37300
N1036       N  0.40410492  0.55735504  0.07354022    -0.37300
C1037       C  0.41794918  0.24605564  0.05336661    -0.03900
C1038       C  0.42892623  0.27809829  0.05297029    -0.01100
C1039       C  0.45252831  0.29845446  0.06825993     0.03900
C1040       C  0.46591774  0.28720510  0.08401941    -0.03900
C1041       C  0.45473361  0.25508076  0.08451386    -0.01000
C1042       C  0.43121080  0.23470534  0.06911862     0.03900
C1043       C  0.41409083  0.28989214  0.03815272     0.38600
C1044       C  0.46558592  0.24245588  0.10199375     0.38600
C1045       C  0.42042558  0.20188567  0.06970437     0.37000
C1046       C  0.46073075  0.33058172  0.06921527     0.37000
N1047       N  0.41179206  0.17570997  0.07021479    -0.37800
N1048       N  0.46636802  0.35594079  0.06999820    -0.37800
N1049       N  0.47335740  0.23160305  0.11599615    -0.37300
N1050       N  0.40204321  0.29930082  0.02656954    -0.37300
C1051       C  0.33179175  0.25305462  0.94673768    -0.03900
C1052       C  0.30806411  0.24568260  0.93023078    -0.01100
C1053       C  0.30968470  0.26860399  0.91535974     0.03900
C1054       C  0.33476532  0.29925956  0.91671055    -0.03900
C1055       C  0.35888132  0.30656829  0.93249343    -0.01000
C1056       C  0.35740385  0.28392004  0.94750619     0.03900
C1057       C  0.28317298  0.21398015  0.92688070     0.38600
C1058       C  0.38664159  0.33698518  0.93201768     0.38600
C1059       C  0.38342118  0.29267587  0.96283153     0.37000
C1060       C  0.28712742  0.25975148  0.89701993     0.37000
N1061       N  0.40469153  0.29995859  0.97455925    -0.37800
N1062       N  0.26929402  0.25205644  0.88223032    -0.37800
N1063       N  0.40895606  0.36104261  0.93143759    -0.37300
N1064       N  0.26342990  0.18871887  0.92396592    -0.37300
Zn1065     Zn  0.32851525  0.66654079  0.03191001     1.49700
Zn1066     Zn  0.29253347  0.66582579  0.98568775     1.49400
Zn1067     Zn  0.36697148  0.70564409  0.98933885     1.49100
Zn1068     Zn  0.33154920  0.63124279  0.98716868     1.49500
O1069       O  0.32967460  0.66713716  0.99841476    -1.82700
O1070       O  0.29300516  0.67103548  0.04282658    -0.73400
O1071       O  0.30492981  0.70404167  0.96631675    -0.73200
O1072       O  0.39403580  0.73012986  0.01638712    -0.72700
O1073       O  0.26603111  0.66693842  0.01135020    -0.73400
O1074       O  0.36861008  0.70086906  0.04606580    -0.73000
O1075       O  0.35579993  0.73207378  0.97044883    -0.73600
O1076       O  0.36996951  0.64552735  0.96763786    -0.72900
O1077       O  0.26655323  0.62662541  0.96616833    -0.73700
O1078       O  0.39380143  0.69658645  0.96933482    -0.73100
O1079       O  0.29479402  0.60389020  0.96673222    -0.73600
O1080       O  0.33086032  0.60467922  0.01383537    -0.73500
O1081       O  0.32251071  0.62635392  0.04418784    -0.73300
C1082       C  0.26975046  0.66991818  0.03298832     0.78500
C1083       C  0.33069192  0.72850605  0.96208875     0.79000
C1084       C  0.39215075  0.72456826  0.03775404     0.78000
C1085       C  0.39232862  0.67203895  0.96193557     0.78400
C1086       C  0.27101951  0.60472474  0.96008056     0.79500
C1087       C  0.32571491  0.60499851  0.03521339     0.78500
Zn1088     Zn  0.33412973  0.67109593  0.46738008     1.49700
Zn1089     Zn  0.36966410  0.71054351  0.51183284     1.49400
Zn1090     Zn  0.29552457  0.66951395  0.51141744     1.49100
Zn1091     Zn  0.33491072  0.63616098  0.51235891     1.49500
O1092       O  0.33372983  0.67193106  0.50076046    -1.82700
O1093       O  0.37396127  0.70660368  0.45517797    -0.73400
O1094       O  0.35582135  0.73450767  0.53169183    -0.73200
O1095       O  0.27116756  0.67172045  0.48520165    -0.72700
O1096       O  0.39631059  0.73702771  0.48546902    -0.73400
O1097       O  0.29903050  0.67530358  0.45451239    -0.73000
O1098       O  0.30461431  0.70484211  0.53211838    -0.73600
O1099       O  0.29621575  0.60815265  0.53014775    -0.72900
O1100       O  0.39681642  0.70135099  0.53188376    -0.73700
O1101       O  0.26837911  0.63076072  0.52931310    -0.73100
O1102       O  0.37177047  0.65013253  0.53338707    -0.73600
O1103       O  0.33665286  0.60980743  0.48671307    -0.73500
O1104       O  0.33000906  0.63111986  0.45558267    -0.73300
C1105       C  0.39565950  0.73142844  0.46409154     0.78500
C1106       C  0.32934114  0.72890421  0.53862443     0.79000
C1107       C  0.27566097  0.67459059  0.46373325     0.78000
C1108       C  0.27185873  0.60853342  0.53568044     0.78400
C1109       C  0.39446184  0.67644935  0.53929556     0.79500
C1110       C  0.33270209  0.60986145  0.46518013     0.78500
N1111       N  0.38438863  0.00348010  0.78355592    -0.35200
N1112       N  0.39584278  0.55241806  0.75139081    -0.55800
N1113       N  0.38472901  0.00875994  0.71520733    -0.35200
N1114       N  0.37095316  0.95974506  0.74724230    -0.55800
C1115       C  0.38588170  0.52538030  0.79807069     0.28400
C1116       C  0.37052627  0.97623929  0.79494391     0.28400
C1117       C  0.38601992  0.53255598  0.70354319     0.28400
C1118       C  0.37135751  0.98380576  0.70123845     0.28400
C1119       C  0.40634094  0.56953891  0.77077168     0.37000
C1120       C  0.40921659  0.57231797  0.73376300     0.37000
C1121       C  0.37509195  0.94465694  0.76467284     0.37000
C1122       C  0.37479148  0.94758885  0.72778549     0.37000
C1123       C  0.37314928  0.51191195  0.81897714    -0.20500
C1124       C  0.36183448  0.98069590  0.81642202    -0.20500
C1125       C  0.37301427  0.52275926  0.68197024    -0.20500
C1126       C  0.36349581  0.99165413  0.68062220    -0.20500
C1127       C  0.42420114  0.60063248  0.76522689    -0.21600
C1128       C  0.42726877  0.60218725  0.74197936    -0.21500
C1129       C  0.38186366  0.92298294  0.75627243    -0.21600
C1130       C  0.38112318  0.92450363  0.73278398    -0.21500
C1131       C  0.40236529  0.55756908  0.79335455    -0.16900
C1132       C  0.37048242  0.94909414  0.78786697    -0.16900
C1133       C  0.37042235  0.95579696  0.70569094    -0.16900
C1134       C  0.40486604  0.56368497  0.71036387    -0.16900
H1135       H  0.37287428  0.52275882  0.83481190     0.16000
H1136       H  0.35096576  0.96378887  0.82983681     0.16000
H1137       H  0.37252458  0.53697303  0.66831031     0.16000
H1138       H  0.35366709  0.97711478  0.66562323     0.16000
H1139       H  0.43533283  0.62029375  0.77670645     0.14300
H1140       H  0.44138540  0.62311264  0.73245025     0.14300
H1141       H  0.38640012  0.90754534  0.76613199     0.14300
H1142       H  0.38504438  0.91060603  0.72064802     0.14300
H1143       H  0.39689560  0.00803387  0.76848353     0.27600
H1144       H  0.39731348  0.01086988  0.72994065     0.27600
N1145       N  0.09586865  0.59481551  0.78518078    -0.35200
N1146       N  0.07785634  0.62753244  0.75329859    -0.55800
N1147       N  0.09700949  0.60312982  0.71683976    -0.35200
N1148       N  0.11620927  0.57173139  0.74874245    -0.55800
C1149       C  0.09296633  0.61481769  0.79894805     0.28400
C1150       C  0.11430565  0.58647542  0.79612564     0.28400
C1151       C  0.09500699  0.62595960  0.70632664     0.28400
C1152       C  0.11480972  0.59618180  0.70368177     0.28400
C1153       C  0.06376602  0.62899087  0.77254430     0.37000
C1154       C  0.06379087  0.63279740  0.73553624     0.37000
C1155       C  0.11377924  0.55261016  0.76580690     0.37000
C1156       C  0.11380535  0.55676646  0.72897875     0.37000
C1157       C  0.11013471  0.61983815  0.81875838    -0.20500
C1158       C  0.12418390  0.60239765  0.81677948    -0.20500
C1159       C  0.11262734  0.63432083  0.68651322    -0.20500
C1160       C  0.12489984  0.61522654  0.68472632    -0.20500
C1161       C  0.04128404  0.63611929  0.76707933    -0.21600
C1162       C  0.04051374  0.63750641  0.74360140    -0.21500
C1163       C  0.10916470  0.52500299  0.75685535    -0.21600
C1164       C  0.10945525  0.52784615  0.73336583    -0.21500
C1165       C  0.07230497  0.62553023  0.79492685    -0.16900
C1166       C  0.11831869  0.56166174  0.78906149    -0.16900
C1167       C  0.11854456  0.57052030  0.70731985    -0.16900
C1168       C  0.07357184  0.63527376  0.71248002    -0.16900
H1169       H  0.11179347  0.63405229  0.83329003     0.16000
H1170       H  0.13865540  0.60041484  0.82961082     0.16000
H1171       H  0.11488975  0.65116016  0.67401516     0.16000
H1172       H  0.13864558  0.61462170  0.67068830     0.16000
H1173       H  0.02688109  0.63982649  0.77877659     0.14300
H1174       H  0.02502758  0.64211713  0.73375270     0.14300
H1175       H  0.10634161  0.50524855  0.76627053     0.14300
H1176       H  0.10652011  0.51076642  0.72079273     0.14300
H1177       H  0.08212562  0.58395549  0.77083721     0.27600
H1178       H  0.08301415  0.58960788  0.73019807     0.27600
N1179       N  0.50055721  0.85965331  0.78419028    -0.35200
N1180       N  0.04851850  0.89625009  0.74999672    -0.55800
N1181       N  0.50172471  0.88237455  0.71595385    -0.35200
N1182       N  0.45431394  0.85001155  0.74986879    -0.55800
C1183       C  0.02582772  0.87461890  0.79782799     0.28400
C1184       C  0.47546839  0.85095636  0.79769763     0.28400
C1185       C  0.02755740  0.90624484  0.70633942     0.28400
C1186       C  0.47661145  0.88120722  0.70623710     0.28400
C1187       C  0.06570337  0.89461522  0.76713639     0.37000
C1188       C  0.06566542  0.90294117  0.73073206     0.37000
C1189       C  0.43604079  0.83210340  0.76694059     0.37000
C1190       C  0.43723974  0.84007276  0.73051157     0.37000
C1191       C  0.01642570  0.87243311  0.82044613    -0.20500
C1192       C  0.48490217  0.85775878  0.82033030    -0.20500
C1193       C  0.01861919  0.92069202  0.69044203    -0.20500
C1194       C  0.48630106  0.90474491  0.69035126    -0.20500
C1195       C  0.09395543  0.90033780  0.75865810    -0.21600
C1196       C  0.09315352  0.90381494  0.73542366    -0.21500
C1197       C  0.40720996  0.81044138  0.75842937    -0.21600
C1198       C  0.40845136  0.81455675  0.73513204    -0.21500
C1199       C  0.05721354  0.89159934  0.79044891    -0.16900
C1200       C  0.44432227  0.83806319  0.79019314    -0.16900
C1201       C  0.44543864  0.85764835  0.71022351    -0.16900
C1202       C  0.05832029  0.91265398  0.71016434    -0.16900
H1203       H  0.03092673  0.88121952  0.83555406     0.16000
H1204       H  0.47047158  0.85333555  0.83523292     0.16000
H1205       H  0.03358715  0.94011354  0.67971312     0.16000
H1206       H  0.47181627  0.90966406  0.67951749     0.16000
H1207       H  0.11347064  0.90220369  0.76785618     0.14300
H1208       H  0.11172227  0.90871221  0.72364819     0.14300
H1209       H  0.38717730  0.79374192  0.76784778     0.14300
H1210       H  0.38939973  0.80196561  0.72328145     0.14300
H1211       H  0.50052297  0.85601311  0.76668525     0.27600
H1212       H  0.50132351  0.86538519  0.72634853     0.27600
C1213       C  0.01533936  0.69437849  0.60507362     0.03700
C1214       C  0.48247455  0.67819318  0.60513778     0.03600
C1215       C  0.46634314  0.65847066  0.62327013    -0.16900
C1216       C  0.48170431  0.65337740  0.64113569     0.03700
C1217       C  0.01457897  0.66908001  0.64107800     0.03600
C1218       C  0.03089030  0.68957771  0.62323051    -0.16900
H1219       H  0.05598887  0.70139037  0.62319486     0.05700
H1220       H  0.44120544  0.64623195  0.62317816     0.05700
C1221       C  0.18211209  0.51798034  0.59956365     0.03700
C1222       C  0.17102984  0.98581741  0.60078702     0.03600
C1223       C  0.15349857  0.96932533  0.61982474    -0.16900
C1224       C  0.14522031  0.98333836  0.63704206     0.03700
C1225       C  0.15524478  0.51523027  0.63537217     0.03600
C1226       C  0.17417000  0.53214632  0.61697939    -0.16900
H1227       H  0.18266564  0.55672924  0.61610686     0.05700
H1228       H  0.14544396  0.94485121  0.62094876     0.05700
C1229       C  0.33947667  0.82174974  0.89825699     0.03700
C1230       C  0.32394825  0.83873348  0.89727245     0.03600
C1231       C  0.33026541  0.85887811  0.87871947    -0.16900
C1232       C  0.35031484  0.86139815  0.86083001     0.03700
C1233       C  0.36479539  0.84329902  0.86142545     0.03600
C1234       C  0.35993088  0.82481544  0.88067977    -0.16900
H1235       H  0.37163605  0.81168755  0.88173854     0.05700
H1236       H  0.31890051  0.87233858  0.87792521     0.05700
C1237       C  0.32609330  0.81291639  0.60559865     0.03700
C1238       C  0.31650217  0.83457398  0.60180837     0.03600
C1239       C  0.32525962  0.85869016  0.61756437    -0.16900
C1240       C  0.34328976  0.86183622  0.63696510     0.03700
C1241       C  0.35276111  0.83989897  0.64089691     0.03600
C1242       C  0.34268285  0.81503302  0.62549843    -0.16900
H1243       H  0.34971381  0.79812028  0.62817858     0.05700
H1244       H  0.31772710  0.87519555  0.61475737     0.05700
C1245       C  0.18297920  0.51125384  0.89630130     0.03700
C1246       C  0.16916736  0.97847166  0.89767688     0.03600
C1247       C  0.14979698  0.95999411  0.87974468    -0.16900
C1248       C  0.14233303  0.97256167  0.86123070     0.03700
C1249       C  0.15455720  0.50493827  0.86050283     0.03600
C1250       C  0.17497994  0.52377037  0.87783617    -0.16900
H1251       H  0.18465735  0.54856328  0.87700110     0.05700
H1252       H  0.13950118  0.93511396  0.88062738     0.05700
C1253       C  0.48380999  0.67793430  0.89753068     0.03700
C1254       C  0.01472237  0.68540972  0.90141084     0.03600
C1255       C  0.02834798  0.67428049  0.88616501    -0.16900
C1256       C  0.01227899  0.65602222  0.86701897     0.03700
C1257       C  0.48091261  0.64858064  0.86295662     0.03600
C1258       C  0.46852817  0.66188597  0.87758596    -0.16900
H1259       H  0.44559180  0.65814300  0.87434502     0.05700
H1260       H  0.05218608  0.68039112  0.88908828     0.05700
Zn1261     Zn  0.20627808  0.83721997  0.48796797     1.49700
Zn1262     Zn  0.16510889  0.86966492  0.48781291     1.49400
Zn1263     Zn  0.13169336  0.79530560  0.49024682     1.49100
Zn1264     Zn  0.16930655  0.83634851  0.53297537     1.49500
O1265       O  0.16820934  0.83474391  0.49961922    -1.82700
O1266       O  0.23206227  0.87657668  0.46919316    -0.73400
O1267       O  0.12545923  0.85364408  0.46930673    -0.73200
O1268       O  0.14443462  0.76839360  0.47305878    -0.72700
O1269       O  0.20104600  0.89607666  0.46688008    -0.73400
O1270       O  0.19482733  0.80045983  0.46723241    -0.73000
O1271       O  0.10504454  0.80260410  0.46838326    -0.73600
O1272       O  0.12995510  0.80168704  0.54692831    -0.72900
O1273       O  0.16726899  0.89851263  0.51345721    -0.73700
O1274       O  0.10373311  0.77258786  0.51725033    -0.73100
O1275       O  0.17305066  0.87612218  0.54408400    -0.73600
O1276       O  0.20566403  0.83342627  0.54494719    -0.73500
O1277       O  0.23212425  0.83484929  0.51409462    -0.73300
C1278       C  0.22607513  0.89680885  0.46161736     0.78500
C1279       C  0.10475850  0.82677085  0.46243334     0.79000
C1280       C  0.16999404  0.77465225  0.46379196     0.78000
C1281       C  0.10589591  0.77821871  0.53869190     0.78400
C1282       C  0.17148843  0.89828587  0.53497342     0.79500
C1283       C  0.22847796  0.83291334  0.53575862     0.78500
Zn1284     Zn  0.20970316  0.86940103  0.98882136     1.49700
Zn1285     Zn  0.16981759  0.79531439  0.98797931     1.49400
Zn1286     Zn  0.17250009  0.83336564  0.03379485     1.49100
Zn1287     Zn  0.13510363  0.83463030  0.99082063     1.49500
O1288       O  0.17181405  0.83301361  0.00030993    -1.82700
O1289       O  0.23565200  0.85696073  0.96957983    -0.73400
O1290       O  0.17096434  0.76922130  0.01398464    -0.73200
O1291       O  0.21111680  0.87181667  0.04573270    -0.72700
O1292       O  0.20659481  0.80577566  0.96699874    -0.73400
O1293       O  0.23625742  0.89721715  0.01469681    -0.73000
O1294       O  0.17249970  0.79568266  0.04487329    -0.73600
O1295       O  0.10835709  0.83309425  0.01757344    -0.72900
O1296       O  0.12978441  0.76959165  0.96975066    -0.73700
O1297       O  0.13419490  0.83151444  0.04780716    -0.73100
O1298       O  0.10749094  0.79820704  0.97073255    -0.73600
O1299       O  0.14795119  0.87312989  0.97246819    -0.73500
O1300       O  0.19867967  0.89568793  0.96942987    -0.73300
C1301       C  0.23104202  0.83111940  0.96190546     0.78500
C1302       C  0.17189427  0.77234011  0.03569328     0.79000
C1303       C  0.23389559  0.89527367  0.03639266     0.78000
C1304       C  0.11074804  0.83139367  0.03915666     0.78400
C1305       C  0.10782008  0.77419398  0.96413616     0.79500
C1306       C  0.17349285  0.89500687  0.96483247     0.78500
N1307       N  0.00255292  0.61114468  0.28494932    -0.35200
N1308       N  0.04449341  0.62082905  0.24856054    -0.55800
N1309       N  0.99339926  0.60158053  0.21608497    -0.35200
N1310       N  0.45229290  0.59517955  0.25314716    -0.55800
C1311       C  0.03008687  0.62762509  0.29577680     0.28400
C1312       C  0.48117221  0.61129472  0.29873539     0.28400
C1313       C  0.01807018  0.61281283  0.20177340     0.28400
C1314       C  0.46851780  0.59722951  0.20376462     0.28400
C1315       C  0.06178633  0.62140290  0.26651803     0.37000
C1316       C  0.05703381  0.61609611  0.22971560     0.37000
C1317       C  0.43604173  0.58813980  0.27286818     0.37000
C1318       C  0.43137577  0.58646020  0.23596356     0.37000
C1319       C  0.02606493  0.63917433  0.31631341    -0.20500
C1320       C  0.49498594  0.62820598  0.31839745    -0.20500
C1321       C  0.00887189  0.61603970  0.18015606    -0.20500
C1322       C  0.47761866  0.60475831  0.18111764    -0.20500
C1323       C  0.08539630  0.61692113  0.25909712    -0.21600
C1324       C  0.08241457  0.61362734  0.23568798    -0.21500
C1325       C  0.40493314  0.57617910  0.26825014    -0.21600
C1326       C  0.40216046  0.57635765  0.24497204    -0.21500
C1327       C  0.05742423  0.62813586  0.28919829    -0.16900
C1328       C  0.44917032  0.59368507  0.29499036    -0.16900
C1329       C  0.43794989  0.58638774  0.21232307    -0.16900
C1330       C  0.04787710  0.61749181  0.20710691    -0.16900
H1331       H  0.04353142  0.65262345  0.32907964     0.16000
H1332       H  0.48362469  0.63175284  0.33284324     0.16000
H1333       H  0.02276884  0.62432798  0.16485328     0.16000
H1334       H  0.46390229  0.60273555  0.16630604     0.16000
H1335       H  0.10309206  0.61669687  0.26948203     0.14300
H1336       H  0.09732787  0.61035524  0.22416910     0.14300
H1337       H  0.38620374  0.56883986  0.28028205     0.14300
H1338       H  0.38072835  0.56895944  0.23580050     0.14300
H1339       H  0.99769548  0.59614739  0.27117421     0.27600
H1340       H  0.99276477  0.59399448  0.23264257     0.27600
N1341       N  0.39196368  0.89509622  0.28484757    -0.35200
N1342       N  0.41706161  0.87017192  0.25174534    -0.55800
N1343       N  0.40670975  0.90237812  0.21558790    -0.35200
N1344       N  0.38309112  0.92907512  0.24814755    -0.55800
C1345       C  0.40777544  0.88620074  0.29866528     0.28400
C1346       C  0.38800731  0.91623403  0.29652838     0.28400
C1347       C  0.42580694  0.89399500  0.20568214     0.28400
C1348       C  0.40808141  0.92578939  0.20326380     0.28400
C1349       C  0.41375027  0.85294335  0.27031813     0.37000
C1350       C  0.41668710  0.85370053  0.23327262     0.37000
C1351       C  0.36527699  0.93074882  0.26490387     0.37000
C1352       C  0.37341715  0.93481176  0.22805580     0.37000
C1353       C  0.41297731  0.90122237  0.31964223    -0.20500
C1354       C  0.40124209  0.92064964  0.31808713    -0.20500
C1355       C  0.44035440  0.91308106  0.18716220    -0.20500
C1356       C  0.42863641  0.93263953  0.18531935    -0.20500
C1357       C  0.41105725  0.82517633  0.26352947    -0.21600
C1358       C  0.41099400  0.82493339  0.24000220    -0.21500
C1359       C  0.34384927  0.93715867  0.25538218    -0.21600
C1360       C  0.34899565  0.93974266  0.23210653    -0.21500
C1361       C  0.41684958  0.86429798  0.29292412    -0.16900
C1362       C  0.37051806  0.92955875  0.28873148    -0.16900
C1363       C  0.38824140  0.93796597  0.20660135    -0.16900
C1364       C  0.42666768  0.86688802  0.21137262    -0.16900
H1365       H  0.42400134  0.89854199  0.33466264     0.16000
H1366       H  0.40186268  0.93583872  0.33153934     0.16000
H1367       H  0.45639137  0.91188933  0.17541540     0.16000
H1368       H  0.43403953  0.94925383  0.17184417     0.16000
H1369       H  0.40988710  0.80701398  0.27395195     0.14300
H1370       H  0.40978044  0.80677342  0.22920816     0.14300
H1371       H  0.32680658  0.94040182  0.26432275     0.14300
H1372       H  0.33671336  0.94555824  0.21974615     0.14300
H1373       H  0.38207774  0.88538658  0.26904706     0.27600
H1374       H  0.39013537  0.88976827  0.22795560     0.27600
C1375       C  0.33359492  0.52115612  0.40138942     0.03700
C1376       C  0.31313374  0.98919081  0.39771075     0.03600
C1377       C  0.31534258  0.97557832  0.37718064    -0.16900
C1378       C  0.33960825  0.99149698  0.36138092     0.03700
C1379       C  0.36029471  0.52366110  0.36554473     0.03600
C1380       C  0.35701805  0.53750732  0.38541416    -0.16900
H1381       H  0.37307952  0.56191651  0.38842218     0.05700
H1382       H  0.29813537  0.95164328  0.37386768     0.05700
N1383       N  0.11766503  0.50269527  0.28455453    -0.35200
N1384       N  0.13755667  0.54863931  0.24918925    -0.55800
N1385       N  0.11026638  0.49928648  0.21634637    -0.35200
N1386       N  0.09153399  0.95335536  0.25163652    -0.55800
C1387       C  0.13991012  0.52875828  0.29479078     0.28400
C1388       C  0.11572402  0.97846414  0.29601623     0.28400
C1389       C  0.12843236  0.52374344  0.20304231     0.28400
C1390       C  0.10317651  0.97357548  0.20406846     0.28400
C1391       C  0.14122686  0.56637036  0.26765647     0.37000
C1392       C  0.13720305  0.56447863  0.23077819     0.37000
C1393       C  0.07691768  0.93861214  0.27102404     0.37000
C1394       C  0.07329002  0.93638409  0.23399618     0.37000
C1395       C  0.15309040  0.52117707  0.31255523    -0.20500
C1396       C  0.13833208  0.98926913  0.31296254    -0.20500
C1397       C  0.13348720  0.51346016  0.18229401    -0.20500
C1398       C  0.11716170  0.98163626  0.18281892    -0.20500
C1399       C  0.14339592  0.59380945  0.26103270    -0.21600
C1400       C  0.14092284  0.59264814  0.23755980    -0.21500
C1401       C  0.04876198  0.91245553  0.26552984    -0.21600
C1402       C  0.04709696  0.91080102  0.24198615    -0.21500
C1403       C  0.14519634  0.55858011  0.28998944    -0.16900
C1404       C  0.09083933  0.94767750  0.29305875    -0.16900
C1405       C  0.08093408  0.94352256  0.21079318    -0.16900
C1406       C  0.13623898  0.55441761  0.20804662    -0.16900
H1407       H  0.17082250  0.53698623  0.32435126     0.16000
H1408       H  0.14220356  0.97557159  0.32529673     0.16000
H1409       H  0.14631601  0.52740074  0.16780243     0.16000
H1410       H  0.11488034  0.96622392  0.16896522     0.16000
H1411       H  0.14763438  0.61311925  0.27183990     0.14300
H1412       H  0.14303380  0.61097828  0.22672556     0.14300
H1413       H  0.03155498  0.89596802  0.27712251     0.14300
H1414       H  0.02890729  0.89332524  0.23159184     0.14300
H1415       H  0.10144150  0.50162584  0.27280292     0.27600
H1416       H  0.09933471  0.49990256  0.23132377     0.27600
C1417       C  0.32644450  0.99070677  0.09688077     0.03700
C1418       C  0.33027749  0.52044170  0.10053373     0.03600
C1419       C  0.34284025  0.53571420  0.12126360    -0.16900
C1420       C  0.35504011  0.52425152  0.13761861     0.03700
C1421       C  0.35346274  0.99509321  0.13324301     0.03600
C1422       C  0.33908896  0.97915142  0.11276436    -0.16900
H1423       H  0.33638929  0.95664774  0.10953586     0.05700
H1424       H  0.34340255  0.55724269  0.12440716     0.05700
C1425       C  0.16847475  0.68548848  0.39890978     0.03700
C1426       C  0.18703879  0.67160154  0.39962913     0.03600
C1427       C  0.18524977  0.65199448  0.38171591    -0.16900
C1428       C  0.16481393  0.64512881  0.36344853     0.03700
C1429       C  0.14603763  0.65858685  0.36287051     0.03600
C1430       C  0.14800146  0.67850066  0.38046321    -0.16900
H1431       H  0.13347995  0.68873694  0.37974135     0.05700
H1432       H  0.19937809  0.64131361  0.38232335     0.05700
C1433       C  0.18004406  0.66340001  0.09786655     0.03700
C1434       C  0.16200185  0.67778900  0.09825252     0.03600
C1435       C  0.14055489  0.67082506  0.11595184    -0.16900
C1436       C  0.13732992  0.65038432  0.13334912     0.03700
C1437       C  0.15633386  0.63715703  0.13328393     0.03600
C1438       C  0.17722788  0.64354199  0.11554942    -0.16900
H1439       H  0.19122712  0.63270406  0.11538452     0.05700
H1440       H  0.12653273  0.68161893  0.11630307     0.05700
C1441       C  0.01803292  0.83004354  0.39861491     0.03700
C1442       C  0.48590601  0.81889838  0.39986775     0.03600
C1443       C  0.47195295  0.82725165  0.38265682    -0.16900
C1444       C  0.48866700  0.84541128  0.36382215     0.03700
C1445       C  0.02088363  0.85712342  0.36315720     0.03600
C1446       C  0.03497600  0.84931840  0.38046927    -0.16900
H1447       H  0.05987390  0.85898844  0.38001051     0.05700
H1448       H  0.44732885  0.81880877  0.38372759     0.05700
C1449       C  0.48559416  0.80793810  0.10313532     0.03700
C1450       C  0.01820772  0.82779355  0.10209661     0.03600
C1451       C  0.03324228  0.84970948  0.11967015    -0.16900
C1452       C  0.01699019  0.85228231  0.13833897     0.03700
C1453       C  0.48436891  0.83177131  0.13973250     0.03600
C1454       C  0.46953560  0.80949673  0.12235272    -0.16900
H1455       H  0.44473854  0.79373431  0.12332599     0.05700
H1456       H  0.05811139  0.86514785  0.11875028     0.05700
C1457       C  0.04188361  0.88002950  0.34608169    -0.03900
C1458       C  0.05886294  0.91146648  0.35221663    -0.01100
C1459       C  0.07395738  0.93394765  0.33520220     0.03900
C1460       C  0.07831307  0.92507820  0.31290237    -0.03900
C1461       C  0.06851068  0.89331933  0.30937207    -0.01000
C1462       C  0.04791952  0.87076961  0.32492742     0.03900
C1463       C  0.56057440  0.92046977  0.37608650     0.38600
C1464       C  0.08024413  0.88383686  0.29023655     0.38600
C1465       C  0.03371606  0.83815353  0.31955846     0.37000
C1466       C  0.08372738  0.96550289  0.34140691     0.37000
N1467       N  0.02217609  0.81205957  0.31536642    -0.37800
N1468       N  0.59200366  0.99008968  0.34799160    -0.37800
N1469       N  0.08968881  0.87621382  0.27505775    -0.37300
N1470       N  0.56166792  0.92765365  0.39506928    -0.42100
C1471       C  0.03473044  0.87672121  0.15614403    -0.03900
C1472       C  0.02791347  0.90038941  0.16025249    -0.01100
C1473       C  0.04135994  0.92063107  0.17907180     0.03900
C1474       C  0.06413026  0.91955638  0.19260836    -0.03900
C1475       C  0.07238559  0.89715288  0.18778053    -0.01000
C1476       C  0.05765988  0.87568885  0.16972947     0.03900
C1477       C  0.00804272  0.90478790  0.14458230     0.38600
C1478       C  0.09600069  0.89618449  0.20150963     0.38600
C1479       C  0.06583936  0.85225692  0.16544387     0.37000
C1480       C  0.03069893  0.94165278  0.18518997     0.37000
N1481       N  0.07243314  0.83359948  0.16209678    -0.37800
N1482       N  0.02157288  0.95782551  0.19041083    -0.37800
N1483       N  0.11482491  0.89546562  0.21252860    -0.37300
N1484       N  0.99250559  0.90863333  0.13197710    -0.37300
C1485       C  0.16201651  0.62241403  0.34568683    -0.03900
C1486       C  0.18418168  0.63101422  0.32811202    -0.01100
C1487       C  0.17976224  0.60971060  0.31048635     0.03900
C1488       C  0.15190100  0.58077356  0.30934622    -0.03900
C1489       C  0.12955472  0.57290266  0.32666388    -0.01000
C1490       C  0.13621161  0.59221274  0.34584247     0.03900
C1491       C  0.21161903  0.66154276  0.32834623     0.38600
C1492       C  0.09852510  0.54662630  0.32371011     0.38600
C1493       C  0.11791661  0.58000158  0.36637186     0.37000
C1494       C  0.20339318  0.61784536  0.29324096     0.37000
N1495       N  0.10386183  0.56956741  0.38292421    -0.37800
N1496       N  0.22211190  0.62434290  0.27935158    -0.37800
N1497       N  0.07347923  0.52628894  0.32097493    -0.37300
N1498       N  0.23356504  0.68589713  0.32855862    -0.37300
C1499       C  0.14256206  0.57600008  0.18859314    -0.03900
C1500       C  0.17087263  0.60450390  0.18719891    -0.01100
C1501       C  0.17526368  0.62526260  0.16948241     0.03900
C1502       C  0.15372017  0.61551221  0.15132415    -0.03900
C1503       C  0.12868878  0.58508950  0.15073760    -0.01000
C1504       C  0.12084685  0.56714203  0.17047258     0.03900
C1505       C  0.19559779  0.61213917  0.20352293     0.38600
C1506       C  0.11309771  0.57123863  0.12930672     0.38600
C1507       C  0.09004305  0.54031871  0.17212629     0.37000
C1508       C  0.20207751  0.65621322  0.16966107     0.37000
N1509       N  0.06514115  0.51934054  0.17316155    -0.37800
N1510       N  0.22343732  0.68095885  0.16985192    -0.37800
N1511       N  0.10144712  0.55967034  0.11208511    -0.37300
N1512       N  0.21532747  0.61802189  0.21650472    -0.37300
C1513       C  0.43569715  0.85818123  0.30997073    -0.03900
C1514       C  0.42484342  0.82882163  0.31985736    -0.01100
C1515       C  0.44394747  0.82423053  0.33527807     0.03900
C1516       C  0.47088911  0.84998923  0.34485414    -0.03900
C1517       C  0.47883208  0.87975908  0.33720811    -0.01000
C1518       C  0.46439825  0.88311750  0.31767637     0.03900
C1519       C  0.39361800  0.80371153  0.31529233     0.38600
C1520       C  0.49625441  0.90665697  0.35165714     0.38600
C1521       C  0.47816930  0.91298532  0.30654784     0.37000
C1522       C  0.43517349  0.79296231  0.34169949     0.37000
N1523       N  0.48907550  0.93676627  0.29766660    -0.37800
N1524       N  0.42821451  0.76808910  0.34697181    -0.37800
N1525       N  0.50852538  0.92869071  0.36295474    -0.37300
N1526       N  0.36876018  0.78348382  0.31168915    -0.37300
C1527       C  0.43808080  0.85245631  0.19384366    -0.03900
C1528       C  0.46083705  0.84433669  0.19911525    -0.01100
C1529       C  0.47258800  0.83342924  0.18174674     0.03900
C1530       C  0.46524598  0.83439227  0.15856910    -0.03900
C1531       C  0.44067228  0.83969124  0.15351841    -0.01000
C1532       C  0.42622026  0.84704491  0.17117806     0.03900
C1533       C  0.47200148  0.84615202  0.22228578     0.38600
C1534       C  0.43050826  0.83854088  0.13011118     0.38600
C1535       C  0.39893833  0.84899503  0.16589174     0.37000
C1536       C  0.99117609  0.82008227  0.18801940     0.37000
N1537       N  0.37729803  0.85071676  0.16166721    -0.37800
N1538       N  0.00535507  0.80869767  0.19323498    -0.37800
N1539       N  0.42188295  0.83750565  0.11157663    -0.37300
N1540       N  0.47997393  0.84595117  0.24085906    -0.37300
C1541       C  0.35853372  0.94361183  0.30619370    -0.03900
C1542       C  0.34343544  0.92762850  0.32641900    -0.01100
C1543       C  0.33948896  0.94364806  0.34493529     0.03900
C1544       C  0.34293786  0.97337074  0.34160098    -0.03900
C1545       C  0.35086665  0.98573074  0.31928529    -0.01000
C1546       C  0.36345155  0.97374261  0.30350868     0.03900
C1547       C  0.33252863  0.89490807  0.32852254     0.38600
C1548       C  0.34357024  0.50892667  0.31127259     0.38600
C1549       C  0.38505231  0.99424641  0.28666295     0.37000
C1550       C  0.33332310  0.92961618  0.36738979     0.37000
N1551       N  0.40383228  0.51107351  0.27410981    -0.37800
N1552       N  0.32832652  0.91828431  0.38526193    -0.37800
N1553       N  0.33716169  0.52663926  0.30464534    -0.37300
N1554       N  0.32368684  0.86878465  0.33022493    -0.37300
C1555       C  0.36393445  0.97930916  0.15030117    -0.03900
C1556       C  0.34265356  0.94916841  0.15850708    -0.01100
C1557       C  0.35149968  0.93530673  0.17565609     0.03900
C1558       C  0.38072106  0.95202329  0.18649031    -0.03900
C1559       C  0.40231300  0.98171034  0.17803982    -0.01000
C1560       C  0.39458099  0.99435551  0.15919680     0.03900
C1561       C  0.31087996  0.93258159  0.15035079     0.38600
C1562       C  0.43206220  0.99990322  0.18935724     0.38600
C1563       C  0.41812634  0.52285695  0.14889656     0.37000
C1564       C  0.33013628  0.90370879  0.18251396     0.37000
N1565       N  0.43708164  0.54546357  0.14058298    -0.37800
N1566       N  0.31319196  0.87852248  0.18802387    -0.37800
N1567       N  0.45553333  0.51458265  0.19851124    -0.37300
N1568       N  0.28541278  0.91887083  0.14412790    -0.37300
C1569       C  0.42900136  0.57861798  0.31520593    -0.03900
C1570       C  0.40902922  0.58840469  0.32353248    -0.01100
C1571       C  0.38673405  0.57071781  0.34016216     0.03900
C1572       C  0.38597425  0.54441259  0.34983258    -0.03900
C1573       C  0.40930398  0.53782910  0.34400997    -0.01000
C1574       C  0.42941178  0.55353332  0.32576131     0.03900
C1575       C  0.41061466  0.61589587  0.31424287     0.38600
C1576       C  0.41292431  0.01467181  0.35652047     0.38600
C1577       C  0.44838802  0.54191594  0.31648644     0.37000
C1578       C  0.36332666  0.57845258  0.34602267     0.37000
N1579       N  0.46246057  0.53174383  0.30855173    -0.37800
N1580       N  0.34463169  0.58459716  0.35063290    -0.37800
N1581       N  0.41555216  0.99634046  0.36657045    -0.37300
N1582       N  0.41191316  0.63778347  0.30672120    -0.37300
C1583       C  0.37002328  0.54351774  0.15867735    -0.03900
C1584       C  0.36381421  0.52930490  0.18018440    -0.01100
C1585       C  0.38681333  0.54207337  0.19717016     0.03900
C1586       C  0.41118334  0.57319248  0.19562483    -0.03900
C1587       C  0.41018000  0.59094310  0.17740650    -0.01000
C1588       C  0.39254837  0.57567249  0.15769899     0.03900
C1589       C  0.33425807  0.50174084  0.18471828     0.38600
C1590       C  0.42867559  0.62442900  0.17840065     0.38600
C1591       C  0.39950961  0.59294743  0.13660244     0.37000
C1592       C  0.38625026  0.52229038  0.21508852     0.37000
N1593       N  0.40523412  0.60706190  0.11989564    -0.37800
N1594       N  0.38598778  0.50644920  0.22937793    -0.37800
N1595       N  0.44356355  0.65111142  0.17928420    -0.37300
N1596       N  0.31059054  0.98007556  0.18850998    -0.37300
C1597       C  0.08144805  0.63511018  0.30723452    -0.03900
C1598       C  0.07297517  0.61730757  0.32746863    -0.01100
C1599       C  0.09288632  0.62748801  0.34646968     0.03900
C1600       C  0.12365558  0.65161944  0.34403309    -0.03900
C1601       C  0.13304019  0.66872005  0.32362642    -0.01000
C1602       C  0.11151673  0.66144355  0.30567831     0.03900
C1603       C  0.04375090  0.58852278  0.32905219     0.38600
C1604       C  0.16428818  0.69486732  0.32168755     0.38600
C1605       C  0.12001067  0.68191362  0.28625830     0.37000
C1606       C  0.08095844  0.61471151  0.36887559     0.37000
N1607       N  0.12715405  0.69869559  0.27099202    -0.37800
N1608       N  0.07106797  0.60502936  0.38678437    -0.37800
N1609       N  0.18917780  0.71582119  0.32017388    -0.37300
N1610       N  0.02079460  0.56529003  0.33092275    -0.37300
C1611       C  0.07123832  0.62574489  0.18820551    -0.03900
C1612       C  0.06437437  0.60639908  0.16873241    -0.01100
C1613       C  0.08427237  0.61679333  0.14972028     0.03900
C1614       C  0.11408773  0.64308170  0.15171241    -0.03900
C1615       C  0.12198978  0.66163258  0.17155449    -0.01000
C1616       C  0.09991781  0.65409249  0.18902644     0.03900
C1617       C  0.03679959  0.57594874  0.16800785     0.38600
C1618       C  0.15254967  0.68887192  0.17375830     0.38600
C1619       C  0.10639098  0.67616120  0.20732485     0.37000
C1620       C  0.07319529  0.60179114  0.12767677     0.37000
N1621       N  0.11154419  0.69404162  0.22172196    -0.37800
N1622       N  0.06400304  0.59032186  0.10995872    -0.37800
N1623       N  0.17694777  0.71054228  0.17570300    -0.37300
N1624       N  0.01483583  0.55163490  0.16724185    -0.37300
C1625       C  0.16640828  0.70186664  0.08148259    -0.03900
C1626       C  0.15311608  0.69367015  0.05945590    -0.01100
C1627       C  0.15697086  0.71672869  0.04385784     0.03900
C1628       C  0.17166880  0.74820483  0.05089874    -0.03900
C1629       C  0.18439316  0.75613369  0.07336937    -0.01000
C1630       C  0.18191847  0.73313470  0.08839105     0.03900
C1631       C  0.13277143  0.66141537  0.05349403     0.38600
C1632       C  0.20028194  0.78798225  0.08138432     0.38600
C1633       C  0.19420224  0.74160404  0.11149617     0.37000
C1634       C  0.14505184  0.70742055  0.02076549     0.37000
N1635       N  0.20384305  0.74852480  0.12992884    -0.37800
N1636       N  0.13595553  0.69962932  0.00229606    -0.37800
N1637       N  0.21269285  0.81327142  0.08795626    -0.37300
N1638       N  0.11561372  0.63596007  0.04848696    -0.37300
C1639       C  0.08559770  0.82912907  0.05448655    -0.03900
C1640       C  0.07306944  0.84851079  0.05105380    -0.01100
C1641       C  0.04979883  0.84686598  0.06575326     0.03900
C1642       C  0.03846270  0.82570191  0.08409204    -0.03900
C1643       C  0.05177032  0.80711300  0.08799443    -0.01000
C1644       C  0.07448078  0.80817294  0.07300099     0.03900
C1645       C  0.08581681  0.87197016  0.03344889     0.38600
C1646       C  0.04442230  0.78908115  0.10875774     0.38600
C1647       C  0.08638404  0.78756692  0.07678599     0.37000
C1648       C  0.03971781  0.86907132  0.06311191     0.37000
N1649       N  0.09579274  0.77106889  0.07984203    -0.37800
N1650       N  0.03271321  0.88757077  0.06079242    -0.37800
N1651       N  0.03939083  0.77528891  0.12556538    -0.37300
N1652       N  0.09619064  0.89090356  0.01957930    -0.37300
C1653       C  0.30300305  0.96842401  0.08023176    -0.03900
C1654       C  0.31154047  0.96297660  0.05852450    -0.01100
C1655       C  0.28914059  0.93957895  0.04398418     0.03900
C1656       C  0.25780831  0.92107292  0.05116949    -0.03900
C1657       C  0.24937459  0.92742071  0.07281660    -0.01000
C1658       C  0.27189907  0.95038401  0.08733134     0.03900
C1659       C  0.34361229  0.98069646  0.05140486     0.38600
C1660       C  0.21729164  0.91106330  0.08018507     0.38600
C1661       C  0.26317850  0.95461150  0.11015966     0.37000
C1662       C  0.29889825  0.93437689  0.02187591     0.37000
N1663       N  0.25609559  0.45779100  0.12842790    -0.37800
N1664       N  0.30688099  0.93058270  0.00420391    -0.37800
N1665       N  0.19173154  0.89812599  0.08608548    -0.37300
N1666       N  0.36913028  0.99445357  0.04547201    -0.37300
C1667       C  0.17045460  0.70840626  0.41628647    -0.03900
C1668       C  0.15670785  0.69877475  0.43806167    -0.01100
C1669       C  0.15780098  0.72058054  0.45400314     0.03900
C1670       C  0.17062730  0.75185997  0.44774592    -0.03900
C1671       C  0.18236425  0.76107855  0.42540204    -0.01000
C1672       C  0.18254555  0.73958533  0.40985773     0.03900
C1673       C  0.13831718  0.66616983  0.44324586     0.38600
C1674       C  0.19218237  0.79219009  0.41779474     0.38600
C1675       C  0.19343507  0.74922531  0.38668198     0.37000
C1676       C  0.14560263  0.71073283  0.47686254     0.37000
N1677       N  0.20176262  0.75685061  0.36813387    -0.37800
N1678       N  0.13599522  0.70289593  0.49512639    -0.37800
N1679       N  0.19962426  0.81687541  0.41168689    -0.37300
N1680       N  0.12253437  0.64030501  0.44759068    -0.37300
C1681       C  0.07956421  0.82366376  0.44720710    -0.03900
C1682       C  0.06166953  0.83674419  0.45389156    -0.01100
C1683       C  0.04084329  0.83806311  0.43834109     0.03900
C1684       C  0.03596977  0.82425948  0.41641775    -0.03900
C1685       C  0.05281243  0.80962292  0.41018104    -0.01000
C1686       C  0.07449424  0.80933423  0.42550932     0.03900
C1687       C  0.06470834  0.84887207  0.47694743     0.38600
C1688       C  0.04951246  0.79673130  0.38735216     0.38600
C1689       C  0.09284187  0.79584788  0.41839322     0.37000
C1690       C  0.02753373  0.85689569  0.44417582     0.37000
N1691       N  0.10746733  0.78513000  0.41264223    -0.37800
N1692       N  0.51925753  0.87390536  0.44885535    -0.37800
N1693       N  0.04717029  0.78673596  0.36908435    -0.37300
N1694       N  0.06698043  0.85817164  0.49543355    -0.37300
C1695       C  0.29047085  0.96813363  0.41529241    -0.03900
C1696       C  0.30130722  0.96140676  0.43559999    -0.01100
C1697       C  0.28031613  0.93891845  0.45104131     0.03900
C1698       C  0.24831829  0.92158957  0.44588240    -0.03900
C1699       C  0.23754343  0.92762955  0.42527182    -0.01000
C1700       C  0.25839250  0.95071468  0.41014537     0.03900
C1701       C  0.33427975  0.97517064  0.43965390     0.38600
C1702       C  0.20514374  0.90873849  0.41883196     0.38600
C1703       C  0.24685388  0.95514825  0.38857866     0.37000
C1704       C  0.29180901  0.93392687  0.47240685     0.37000
N1705       N  0.23752304  0.95824014  0.37127648    -0.37800
N1706       N  0.30117414  0.93031305  0.48949758    -0.37800
N1707       N  0.17935691  0.89355161  0.41362164    -0.37300
N1708       N  0.36042620  0.98513102  0.44302647    -0.37300
C1709       C  0.03515461  0.70809435  0.91920837    -0.03900
C1710       C  0.04325167  0.69801677  0.93916732    -0.01100
C1711       C  0.06612637  0.71963904  0.95428713     0.03900
C1712       C  0.08220025  0.75147368  0.94909660    -0.03900
C1713       C  0.07420980  0.76159967  0.92908190    -0.01000
C1714       C  0.05097353  0.74002938  0.91417124     0.03900
C1715       C  0.02967011  0.66530253  0.94352290     0.38600
C1716       C  0.09121122  0.79410861  0.92306277     0.38600
C1717       C  0.04545265  0.75056974  0.89257790     0.37000
C1718       C  0.07261955  0.70905147  0.97545679     0.37000
N1719       N  0.04171732  0.75926983  0.87524858    -0.37800
N1720       N  0.07735944  0.70042450  0.99244132    -0.37800
N1721       N  0.10487624  0.82002879  0.91831712    -0.37300
N1722       N  0.01974388  0.63935995  0.94725354    -0.37300
C1723       C  0.17225628  0.96160426  0.91759221    -0.03900
C1724       C  0.20000957  0.96173805  0.92178672    -0.01100
C1725       C  0.20113060  0.94188101  0.93837114     0.03900
C1726       C  0.17367708  0.91961338  0.94983436    -0.03900
C1727       C  0.14591528  0.92018698  0.94577308    -0.01000
C1728       C  0.14537553  0.94099323  0.92992342     0.03900
C1729       C  0.22680406  0.98001025  0.90748697     0.38600
C1730       C  0.11716348  0.89905605  0.95727126     0.38600
C1731       C  0.11626173  0.93980208  0.92522704     0.37000
C1732       C  0.23084416  0.94446644  0.94296115     0.37000
N1733       N  0.09304497  0.93864430  0.92132035    -0.37800
N1734       N  0.25468877  0.94687668  0.94661536    -0.37800
N1735       N  0.09400235  0.88217826  0.96612038    -0.37300
N1736       N  0.24833986  0.49390264  0.89592098    -0.37300
C1737       C  0.25119502  0.83020359  0.55092397    -0.03900
C1738       C  0.28345610  0.84786246  0.54675171    -0.01100
C1739       C  0.30483049  0.85013530  0.56357219     0.03900
C1740       C  0.29451161  0.83102774  0.58307551    -0.03900
C1741       C  0.26236411  0.81127911  0.58631655    -0.01000
C1742       C  0.24084668  0.81147269  0.57074251     0.03900
C1743       C  0.29505894  0.86412773  0.52534561     0.38600
C1744       C  0.25124548  0.79243201  0.60670402     0.38600
C1745       C  0.20794806  0.79214946  0.57523920     0.37000
C1746       C  0.33692069  0.87450466  0.56173392     0.37000
N1747       N  0.18172768  0.77692602  0.57893743    -0.37800
N1748       N  0.36207446  0.89495050  0.56009191    -0.37800
N1749       N  0.24214753  0.77752485  0.62300924    -0.37300
N1750       N  0.30464619  0.87644733  0.50807493    -0.37300
C1751       C  0.30002113  0.83511621  0.91456459    -0.03900
C1752       C  0.30868510  0.84806384  0.93681611    -0.01100
C1753       C  0.28596137  0.84509477  0.95267998     0.03900
C1754       C  0.25445826  0.83084255  0.94613755    -0.03900
C1755       C  0.24578856  0.81837471  0.92381177    -0.01000
C1756       C  0.26836796  0.82060288  0.90813459     0.03900
C1757       C  0.34109689  0.86709566  0.94287748     0.38600
C1758       C  0.21371562  0.80449795  0.91656857     0.38600
C1759       C  0.25910033  0.80924393  0.88492166     0.37000
C1760       C  0.29496903  0.85623954  0.97598316     0.37000
N1761       N  0.25169237  0.80044980  0.86634275    -0.37800
N1762       N  0.30208105  0.86475050  0.99465164    -0.37800
N1763       N  0.18811584  0.79352817  0.91085822    -0.37300
N1764       N  0.36671647  0.88323194  0.94812273    -0.37300
C1765       C  0.17456262  0.92403501  0.55012028    -0.03900
C1766       C  0.19268769  0.93193761  0.57041248    -0.01100
C1767       C  0.19214941  0.95264352  0.58656021     0.03900
C1768       C  0.17521091  0.96758431  0.58216395    -0.03900
C1769       C  0.15790546  0.96059250  0.56160841    -0.01000
C1770       C  0.15786508  0.93931511  0.54555378     0.03900
C1771       C  0.21212266  0.91878708  0.57495109     0.38600
C1772       C  0.13714953  0.97238730  0.55809267     0.38600
C1773       C  0.13911895  0.93209392  0.52497652     0.37000
C1774       C  0.20717134  0.95653043  0.60857437     0.37000
N1775       N  0.12420469  0.92661243  0.50857218    -0.37800
N1776       N  0.21873940  0.95892332  0.62621247    -0.37800
N1777       N  0.12056049  0.48161153  0.55453413    -0.37300
N1778       N  0.22756010  0.90826321  0.57858982    -0.37300
C1779       C  0.08008252  0.75701775  0.55451110    -0.03900
C1780       C  0.06204230  0.72482587  0.54990273    -0.01100
C1781       C  0.04014948  0.70453734  0.56599944     0.03900
C1782       C  0.03471635  0.71604349  0.58648255    -0.03900
C1783       C  0.05173176  0.74821760  0.59076090    -0.01000
C1784       C  0.07403784  0.76857916  0.57490114     0.03900
C1785       C  0.06687285  0.71192714  0.52911053     0.38600
C1786       C  0.04749321  0.76032672  0.61218380     0.38600
C1787       C  0.09053131  0.80153676  0.57973261     0.37000
C1788       C  0.02562596  0.67152525  0.56227964     0.37000
N1789       N  0.10367129  0.82778825  0.58367698    -0.37800
N1790       N  0.01522912  0.64539739  0.55881729    -0.37800
N1791       N  0.04449284  0.77009254  0.62934419    -0.37300
N1792       N  0.07045344  0.70148488  0.51251042    -0.37300
C1793       C  0.42139935  0.83823254  0.80670413    -0.03900
C1794       C  0.39734372  0.81098815  0.81650035    -0.01100
C1795       C  0.37707446  0.81269352  0.83257370     0.03900
C1796       C  0.38394905  0.84171497  0.84205332    -0.03900
C1797       C  0.41054784  0.86853045  0.83398830    -0.01000
C1798       C  0.42616226  0.86699285  0.81450202     0.03900
C1799       C  0.39433978  0.78144067  0.81095101     0.38600
C1800       C  0.42609386  0.89619231  0.84792544     0.38600
C1801       C  0.44817018  0.89530401  0.80303054     0.37000
C1802       C  0.34979824  0.78436936  0.83980385     0.37000
N1803       N  0.46526075  0.91778930  0.79359212    -0.37800
N1804       N  0.32812816  0.76171657  0.84562067    -0.37800
N1805       N  0.44053913  0.91828293  0.85885308    -0.37300
N1806       N  0.39213302  0.75788862  0.80665547    -0.37300
C1807       C  0.08096037  0.91292000  0.80755629    -0.03900
C1808       C  0.10536097  0.90885276  0.81540229    -0.01100
C1809       C  0.12723739  0.93019865  0.83127789     0.03900
C1810       C  0.12095674  0.95114801  0.84307979    -0.03900
C1811       C  0.09308358  0.95032143  0.83818046    -0.01000
C1812       C  0.07677392  0.93594811  0.81812124     0.03900
C1813       C  0.10693478  0.88196516  0.80848447     0.38600
C1814       C  0.07709158  0.95677982  0.85597304     0.38600
C1815       C  0.05428705  0.94352688  0.80948680     0.37000
C1816       C  0.15545243  0.92980983  0.83590681     0.37000
N1817       N  0.03660335  0.94990052  0.80260248    -0.37800
N1818       N  0.17802646  0.92959031  0.83962525    -0.37800
N1819       N  0.06283040  0.95980829  0.87023188    -0.37300
N1820       N  0.10814195  0.86041846  0.80305447    -0.37300
C1821       C  0.12460623  0.96363735  0.65599839    -0.03900
C1822       C  0.09546174  0.93739235  0.65100545    -0.01100
C1823       C  0.07600964  0.91920389  0.66887229     0.03900
C1824       C  0.08270354  0.92952619  0.69191329    -0.03900
C1825       C  0.11237693  0.95569443  0.69685262    -0.01000
C1826       C  0.13393907  0.97071653  0.67908121     0.03900
C1827       C  0.08500593  0.92918931  0.62746649     0.38600
C1828       C  0.12162456  0.96731758  0.71999348     0.38600
C1829       C  0.16629947  0.99170085  0.68461900     0.37000
C1830       C  0.05003847  0.88890595  0.66344602     0.37000
N1831       N  0.19187904  0.50725901  0.68918475    -0.37800
N1832       N  0.02994451  0.86446201  0.65881448    -0.37800
N1833       N  0.12990917  0.97656416  0.73837550    -0.37300
N1834       N  0.07668860  0.92287213  0.60868800    -0.37300
C1835       C  0.37566402  0.84359726  0.65921503    -0.03900
C1836       C  0.40298454  0.84338876  0.65310067    -0.01100
C1837       C  0.42377823  0.84507775  0.67004591     0.03900
C1838       C  0.42070414  0.85208999  0.69291822    -0.03900
C1839       C  0.39379245  0.85296925  0.69909683    -0.01000
C1840       C  0.37039636  0.84631392  0.68268086     0.03900
C1841       C  0.41035004  0.84169648  0.62932697     0.38600
C1842       C  0.38931638  0.85919470  0.72258189     0.38600
C1843       C  0.34023990  0.83986349  0.69040751     0.37000
C1844       C  0.44689125  0.83706630  0.66411189     0.37000
N1845       N  0.31623486  0.83420350  0.69716805    -0.37800
N1846       N  0.46437704  0.82946937  0.65919590    -0.37800
N1847       N  0.38561769  0.86314848  0.74154857    -0.37300
N1848       N  0.41672876  0.84027279  0.61052663    -0.37300
C1849       C  0.05898549  0.63316892  0.81507722    -0.03900
C1850       C  0.07041331  0.66421304  0.82132889    -0.01100
C1851       C  0.05653544  0.67157774  0.83935101     0.03900
C1852       C  0.03036666  0.64779327  0.85091781    -0.03900
C1853       C  0.02095649  0.61664642  0.84606600    -0.01000
C1854       C  0.03477682  0.60936045  0.82788830     0.03900
C1855       C  0.09580449  0.68863407  0.80856890     0.38600
C1856       C  0.49645588  0.59218373  0.85932664     0.38600
C1857       C  0.02280673  0.57734309  0.82147897     0.37000
C1858       C  0.06835562  0.70384158  0.84500842     0.37000
N1859       N  0.01281603  0.55177571  0.81617721    -0.37800
N1860       N  0.07823987  0.72963576  0.84955027    -0.37800
N1861       N  0.47669391  0.57262971  0.86979058    -0.37300
N1862       N  0.11590963  0.70800692  0.79822704    -0.37300
C1863       C  0.12691305  0.54513139  0.80657104    -0.03900
C1864       C  0.11091647  0.53605803  0.82768338    -0.01100
C1865       C  0.12285715  0.52719559  0.84601044     0.03900
C1866       C  0.14600622  0.51973189  0.84205231    -0.03900
C1867       C  0.16042406  0.52591369  0.82048044    -0.01000
C1868       C  0.15229926  0.54033013  0.80327698     0.03900
C1869       C  0.08150512  0.53468184  0.83048442     0.38600
C1870       C  0.18446682  0.51850645  0.81640372     0.38600
C1871       C  0.17067541  0.55070863  0.78260326     0.37000
C1872       C  0.11166147  0.52636110  0.86903052     0.37000
N1873       N  0.18534470  0.55872557  0.76608557    -0.37800
N1874       N  0.10286044  0.52592295  0.88740291    -0.37800
N1875       N  0.20354158  0.51239898  0.81328849    -0.37300
N1876       N  0.05785714  0.53316713  0.83279946    -0.37300
C1877       C  0.12815908  0.55779835  0.68794857    -0.03900
C1878       C  0.15977128  0.56800708  0.68450844    -0.01100
C1879       C  0.16880919  0.55498764  0.66684721     0.03900
C1880       C  0.14616680  0.53140846  0.65258363    -0.03900
C1881       C  0.11471565  0.52275087  0.65518853    -0.01000
C1882       C  0.10567724  0.53520456  0.67321445     0.03900
C1883       C  0.18292333  0.59161645  0.69945651     0.38600
C1884       C  0.09183332  0.00176706  0.63897376     0.38600
C1885       C  0.07310072  0.52401931  0.67709859     0.37000
C1886       C  0.20138746  0.56544998  0.66372787     0.37000
N1887       N  0.04707489  0.51476600  0.68035181    -0.37800
N1888       N  0.22737905  0.57378035  0.66127596    -0.37800
N1889       N  0.07329282  0.98546054  0.62587272    -0.37300
N1890       N  0.20128345  0.61045448  0.71143988    -0.37300
C1891       C  0.05984226  0.64566580  0.69386737    -0.03900
C1892       C  0.04808155  0.62781747  0.67350564    -0.01100
C1893       C  0.03848046  0.63891103  0.65514160     0.03900
C1894       C  0.03230606  0.66291440  0.65872374    -0.03900
C1895       C  0.04351592  0.68093538  0.67884773    -0.01000
C1896       C  0.05920159  0.67359777  0.69564455     0.03900
C1897       C  0.04431282  0.59731475  0.67150328     0.38600
C1898       C  0.04018665  0.70777890  0.68166741     0.38600
C1899       C  0.07501064  0.69507974  0.71433542     0.37000
C1900       C  0.03771929  0.62753172  0.63216646     0.37000
N1901       N  0.08749502  0.71223145  0.72928099    -0.37800
N1902       N  0.03801448  0.61913288  0.61373988    -0.37800
N1903       N  0.03758108  0.72926290  0.68378099    -0.37300
N1904       N  0.04097210  0.57284399  0.66985811    -0.37300
C1905       C  0.42132482  0.57989718  0.81209754    -0.03900
C1906       C  0.45378142  0.59794870  0.80953473    -0.01100
C1907       C  0.47058149  0.62461272  0.82301816     0.03900
C1908       C  0.45958746  0.62572986  0.84497546    -0.03900
C1909       C  0.42755935  0.60423077  0.84936589    -0.01000
C1910       C  0.40805256  0.58546506  0.83141519     0.03900
C1911       C  0.46931495  0.58952851  0.79259269     0.38600
C1912       C  0.41420105  0.59987703  0.87197847     0.38600
C1913       C  0.37495605  0.57337818  0.83255198     0.37000
C1914       C  0.99455204  0.65252044  0.81245847     0.37000
N1915       N  0.34853622  0.56373967  0.83347315    -0.37800
N1916       N  0.01282593  0.67515269  0.80375396    -0.37800
N1917       N  0.40285999  0.59577922  0.88983053    -0.37300
N1918       N  0.98016811  0.58130128  0.77893043    -0.37300
C1919       C  0.36639939  0.92544385  0.80566471    -0.03900
C1920       C  0.34307705  0.89373386  0.80349376    -0.01100
C1921       C  0.33900399  0.87251261  0.82095112     0.03900
C1922       C  0.35544833  0.88321372  0.84176987    -0.03900
C1923       C  0.37625241  0.91512867  0.84475339    -0.01000
C1924       C  0.38452268  0.93518012  0.82596316     0.03900
C1925       C  0.32267296  0.88282607  0.78371844     0.38600
C1926       C  0.38848536  0.92758231  0.86731501     0.38600
C1927       C  0.41190137  0.96576459  0.82757036     0.37000
C1928       C  0.31665536  0.83986516  0.81808989     0.37000
N1929       N  0.43376261  0.99013007  0.82875969    -0.37800
N1930       N  0.29886962  0.81377356  0.81594821    -0.37800
N1931       N  0.39806142  0.93758466  0.88533080    -0.37300
N1932       N  0.30645265  0.87392185  0.76789906    -0.37300
C1933       C  0.42383348  0.58693826  0.69230958    -0.03900
C1934       C  0.42245491  0.61408150  0.68885268    -0.01100
C1935       C  0.44326895  0.63695321  0.67355658     0.03900
C1936       C  0.46219338  0.63082535  0.65909309    -0.03900
C1937       C  0.45911117  0.60140195  0.65983080    -0.01000
C1938       C  0.44331432  0.58140600  0.67797716     0.03900
C1939       C  0.39918228  0.61811112  0.70046228     0.38600
C1940       C  0.96705566  0.58930559  0.64003202     0.38600
C1941       C  0.44735756  0.55515132  0.68164494     0.37000
C1942       C  0.44420592  0.66620966  0.67196940     0.37000
N1943       N  0.95061405  0.53419468  0.68423129    -0.37800
N1944       N  0.44493524  0.68953887  0.67057964    -0.37800
N1945       N  0.97153712  0.57826705  0.62417392    -0.37300
N1946       N  0.38054585  0.62127118  0.70968517    -0.37300
C1947       C  0.36371419  0.93354744  0.68657689    -0.03900
C1948       C  0.33272101  0.91177594  0.68098041    -0.01100
C1949       C  0.32606686  0.88867791  0.66451143     0.03900
C1950       C  0.35050980  0.88768488  0.65313261    -0.03900
C1951       C  0.38143987  0.91116356  0.65736055    -0.01000
C1952       C  0.38807898  0.93341179  0.67459446     0.03900
C1953       C  0.30767387  0.91291738  0.69249192     0.38600
C1954       C  0.40637099  0.91288467  0.64366345     0.38600
C1955       C  0.42000826  0.95539078  0.68054744     0.37000
C1956       C  0.29402817  0.86512156  0.66008572     0.37000
N1957       N  0.44562344  0.97241249  0.68533532    -0.37800
N1958       N  0.26850757  0.84631059  0.65659508    -0.37800
N1959       N  0.42632416  0.91448312  0.63268067    -0.37300
N1960       N  0.28774871  0.91402144  0.70157056    -0.37300
C1961       C  0.46316832  0.68012859  0.58657982    -0.03900
C1962       C  0.45476921  0.70300093  0.58750876    -0.01100
C1963       C  0.43215508  0.70170794  0.57229414     0.03900
C1964       C  0.41855217  0.67810207  0.55535067    -0.03900
C1965       C  0.42678881  0.65499253  0.55479347    -0.01000
C1966       C  0.44747203  0.65507521  0.57115694     0.03900
C1967       C  0.46671449  0.72579794  0.60582929     0.38600
C1968       C  0.41368864  0.63051807  0.53771574     0.38600
C1969       C  0.44966700  0.62752945  0.57381279     0.37000
C1970       C  0.42095239  0.72302711  0.57558911     0.37000
N1971       N  0.95130750  0.60559449  0.57565003    -0.37800
N1972       N  0.41175087  0.73975513  0.57847725    -0.37800
N1973       N  0.40329794  0.61076877  0.52427780    -0.37300
N1974       N  0.47560164  0.74365618  0.62065583    -0.37300
C1975       C  0.33138180  0.58466100  0.45081427    -0.03900
C1976       C  0.30565476  0.56678766  0.43640159    -0.01100
C1977       C  0.30593224  0.54538376  0.42075458     0.03900
C1978       C  0.33087553  0.53970219  0.42056230    -0.03900
C1979       C  0.35635708  0.55722962  0.43554832    -0.01000
C1980       C  0.35673592  0.57981965  0.45029417     0.03900
C1981       C  0.27904493  0.57094652  0.43729821     0.38600
C1982       C  0.38358117  0.55413056  0.43449111     0.38600
C1983       C  0.38454088  0.60016537  0.46330128     0.37000
C1984       C  0.28261551  0.53272568  0.40286984     0.37000
N1985       N  0.40698102  0.61677601  0.47324977    -0.37800
N1986       N  0.26463495  0.02345217  0.38868250    -0.37800
N1987       N  0.40567737  0.55232295  0.43358387    -0.37300
N1988       N  0.25778894  0.57418399  0.43810524    -0.37300
C1989       C  0.24766251  0.58315447  0.55042659    -0.03900
C1990       C  0.21711092  0.57821108  0.55213803    -0.01100
C1991       C  0.19523827  0.55553351  0.56704601     0.03900
C1992       C  0.20367279  0.53830446  0.58128399    -0.03900
C1993       C  0.23424566  0.54399237  0.58031057    -0.01000
C1994       C  0.25546720  0.56477189  0.56419691     0.03900
C1995       C  0.20780084  0.59672303  0.53912619     0.38600
C1996       C  0.24550212  0.53179549  0.59784911     0.38600
C1997       C  0.28584965  0.56781829  0.56290660     0.37000
C1998       C  0.16432008  0.55112720  0.56859059     0.37000
N1999       N  0.30990069  0.56989334  0.56184553    -0.37800
N2000       N  0.13969318  0.04730711  0.56957452    -0.37800
N2001       N  0.25579045  0.52361422  0.61201030    -0.37300
N2002       N  0.20017832  0.61162928  0.52917137    -0.37300
C2003       C  0.42051578  0.75441933  0.44898253    -0.03900
C2004       C  0.43677846  0.74525461  0.43424295    -0.01100
C2005       C  0.45841840  0.76636527  0.41845229     0.03900
C2006       C  0.46530607  0.79737317  0.41803897    -0.03900
C2007       C  0.44874284  0.80639480  0.43268695    -0.01000
C2008       C  0.42635565  0.78497991  0.44790368     0.03900
C2009       C  0.43073317  0.71377986  0.43493439     0.38600
C2010       C  0.45321167  0.83722910  0.43113818     0.38600
C2011       C  0.40719695  0.79363051  0.46078593     0.37000
C2012       C  0.47080076  0.75506319  0.40101898     0.37000
N2013       N  0.39153988  0.80054110  0.47053874    -0.37800
N2014       N  0.47961817  0.74522568  0.38691013    -0.37800
N2015       N  0.95570449  0.86114336  0.42934463    -0.37300
N2016       N  0.42586638  0.68867030  0.43545599    -0.37300
C2017       C  0.25229554  0.67585536  0.44908344    -0.03900
C2018       C  0.22154503  0.65080921  0.44909989    -0.01100
C2019       C  0.19976964  0.65014673  0.43357310     0.03900
C2020       C  0.20799833  0.67546142  0.41891976    -0.03900
C2021       C  0.23842264  0.70119028  0.41964992    -0.01000
C2022       C  0.26068992  0.70116296  0.43444943     0.03900
C2023       C  0.21282448  0.62460524  0.46398325     0.38600
C2024       C  0.24750413  0.72667493  0.40402849     0.38600
C2025       C  0.29237658  0.72687262  0.43428886     0.37000
C2026       C  0.16973283  0.62215499  0.43131662     0.37000
N2027       N  0.31768833  0.74729500  0.43404011    -0.37800
N2028       N  0.14605011  0.59955713  0.42939789    -0.37800
N2029       N  0.25518540  0.74712999  0.39159803    -0.37300
N2030       N  0.20591834  0.60372446  0.47582892    -0.37300
C2031       C  0.32710991  0.75041274  0.55510931    -0.03900
C2032       C  0.34706751  0.78268392  0.55318027    -0.01100
C2033       C  0.34640521  0.80282897  0.56966360     0.03900
C2034       C  0.32443076  0.79128523  0.58746451    -0.03900
C2035       C  0.30500868  0.75905934  0.58989192    -0.01000
C2036       C  0.30609122  0.73867619  0.57369254     0.03900
C2037       C  0.36878290  0.79556450  0.53442149     0.38600
C2038       C  0.28589359  0.74673062  0.61010506     0.38600
C2039       C  0.28684285  0.70557125  0.57708360     0.37000
C2040       C  0.37102246  0.83495749  0.56984401     0.37000
N2041       N  0.27152834  0.67918940  0.57980715    -0.37800
N2042       N  0.39154023  0.86017199  0.57014513    -0.37800
N2043       N  0.27111874  0.73660153  0.62640927    -0.37300
N2044       N  0.38644570  0.80638996  0.51970755    -0.37300
C2045       C  0.24864690  0.57997472  0.94422530    -0.03900
C2046       C  0.25785726  0.57775479  0.92180997    -0.01100
C2047       C  0.23676676  0.55460093  0.90656856     0.03900
C2048       C  0.20596953  0.53347941  0.91345345    -0.03900
C2049       C  0.19672499  0.53607422  0.93579576    -0.01000
C2050       C  0.21827366  0.55840767  0.95132424     0.03900
C2051       C  0.28898719  0.59979635  0.91425299     0.38600
C2052       C  0.16455910  0.51744334  0.94242973     0.38600
C2053       C  0.20956707  0.55802538  0.97497585     0.37000
C2054       C  0.24670319  0.55294168  0.88355297     0.37000
N2055       N  0.20253012  0.55677632  0.99394896    -0.37800
N2056       N  0.25465132  0.55158572  0.86521775    -0.37800
N2057       N  0.13890043  0.50332291  0.94797243    -0.37300
N2058       N  0.31381784  0.61743840  0.90828161    -0.37300
C2059       C  0.24602487  0.67108509  0.04743214    -0.03900
C2060       C  0.25509648  0.69368432  0.06490244    -0.01100
C2061       C  0.23315779  0.69206926  0.08077493     0.03900
C2062       C  0.20202773  0.66791673  0.07926659    -0.03900
C2063       C  0.19311900  0.64502819  0.06210521    -0.01000
C2064       C  0.21465171  0.64745365  0.04560195     0.03900
C2065       C  0.28712957  0.71847204  0.06674347     0.38600
C2066       C  0.16281383  0.61717550  0.06288215     0.38600
C2067       C  0.20460883  0.62457429  0.02745082     0.37000
C2068       C  0.24332459  0.71335490  0.10003131     0.37000
N2069       N  0.19615570  0.60645518  0.01284076    -0.37800
N2070       N  0.25185465  0.73003418  0.11558841    -0.37800
N2071       N  0.13899280  0.59458112  0.06369523    -0.37300
N2072       N  0.31267991  0.73821664  0.06825499    -0.37300
C2073       C  0.41716763  0.67462674  0.94617976    -0.03900
C2074       C  0.43232563  0.69991320  0.93084406    -0.01100
C2075       C  0.45520025  0.70190309  0.91563564     0.03900
C2076       C  0.46391100  0.67928991  0.91589993    -0.03900
C2077       C  0.44831435  0.65370894  0.93066302    -0.01000
C2078       C  0.42535541  0.65145489  0.94578704     0.03900
C2079       C  0.42318805  0.72306022  0.92944217     0.38600
C2080       C  0.45360244  0.62792537  0.92868048     0.38600
C2081       C  0.40979677  0.62463829  0.96049352     0.37000
C2082       C  0.46782924  0.72588084  0.89843254     0.37000
N2083       N  0.39720765  0.60301659  0.97196017    -0.37800
N2084       N  0.97698740  0.74469210  0.88456105    -0.37800
N2085       N  0.45699146  0.60689435  0.92675243    -0.37300
N2086       N  0.41599931  0.74156653  0.92823267    -0.37300
C2087       C  0.32664674  0.53861257  0.08183122    -0.03900
C2088       C  0.35229007  0.55690528  0.06753962    -0.01100
C2089       C  0.35126841  0.57744825  0.05165192     0.03900
C2090       C  0.32504854  0.58088522  0.05038270    -0.03900
C2091       C  0.29976755  0.56339903  0.06517599    -0.01000
C2092       C  0.30054608  0.54231326  0.08077922     0.03900
C2093       C  0.38100855  0.55689477  0.07074375     0.38600
C2094       C  0.27321988  0.56765668  0.06480817     0.38600
C2095       C  0.27531653  0.52604615  0.09674078     0.37000
C2096       C  0.37839023  0.59713679  0.03799816     0.37000
N2097       N  0.25505790  0.51364859  0.10949441    -0.37800
N2098       N  0.40002062  0.61312189  0.02722325    -0.37800
N2099       N  0.25208163  0.57111862  0.06472845    -0.37300
N2100       N  0.40388899  0.05679058  0.07314149    -0.37300
C2101       C  0.41803172  0.74618588  0.05328577    -0.03900
C2102       C  0.42897188  0.77822121  0.05290510    -0.01100
C2103       C  0.45259332  0.79858718  0.06817591     0.03900
C2104       C  0.46604714  0.78735667  0.08389329    -0.03900
C2105       C  0.45489626  0.75523808  0.08437550    -0.01000
C2106       C  0.43133854  0.73484973  0.06900907     0.03900
C2107       C  0.41405371  0.78998821  0.03814802     0.38600
C2108       C  0.46580052  0.74262552  0.10182724     0.38600
C2109       C  0.42053453  0.70202646  0.06961834     0.37000
C2110       C  0.46072266  0.83069279  0.06918588     0.37000
N2111       N  0.41187804  0.67584702  0.07015742    -0.37800
N2112       N  0.46630607  0.85603208  0.07002985    -0.37800
N2113       N  0.47360614  0.73177134  0.11580475    -0.37300
N2114       N  0.40193493  0.79937574  0.02662027    -0.37300
C2115       C  0.33168495  0.75318370  0.94682688    -0.03900
C2116       C  0.30792428  0.74580603  0.93034862    -0.01100
C2117       C  0.30955513  0.76870225  0.91544494     0.03900
C2118       C  0.33468770  0.79933640  0.91672664    -0.03900
C2119       C  0.35880509  0.80666246  0.93251413    -0.01000
C2120       C  0.35730401  0.78404576  0.94757180     0.03900
C2121       C  0.28297524  0.71411506  0.92706539     0.38600
C2122       C  0.38659210  0.83705824  0.93199647     0.38600
C2123       C  0.38329879  0.79283239  0.96292742     0.37000
C2124       C  0.28693935  0.75983112  0.89714688     0.37000
N2125       N  0.40455232  0.80014843  0.97468096    -0.37800
N2126       N  0.26904299  0.75210750  0.88239915    -0.37800
N2127       N  0.40892712  0.86109690  0.93138144    -0.37300
N2128       N  0.26318660  0.68885962  0.92421096    -0.37300
Zn2129     Zn  0.82850816  0.16653300  0.03191533     1.49700
Zn2130     Zn  0.79254655  0.16582683  0.98568259     1.49400
Zn2131     Zn  0.86698990  0.20560423  0.98934088     1.49100
Zn2132     Zn  0.83152322  0.13120711  0.98717422     1.49500
O2133       O  0.82967442  0.16711706  0.99841810    -1.82700
O2134       O  0.79300215  0.17105073  0.04282194    -0.73400
O2135       O  0.80497211  0.20403762  0.96630105    -0.73200
O2136       O  0.89406179  0.23008699  0.01638996    -0.72700
O2137       O  0.76605190  0.16697384  0.01133694    -0.73400
O2138       O  0.86861577  0.20085002  0.04607410    -0.73000
O2139       O  0.85584282  0.23204713  0.97044414    -0.73600
O2140       O  0.86993764  0.14545390  0.96763550    -0.72900
O2141       O  0.76654149  0.12662123  0.96617282    -0.73700
O2142       O  0.89379493  0.19651388  0.96933430    -0.73100
O2143       O  0.79475861  0.10386162  0.96674674    -0.73600
O2144       O  0.83080600  0.10464461  0.01384622    -0.73500
O2145       O  0.82247954  0.12633853  0.04419773    -0.73300
C2146       C  0.76975887  0.16994970  0.03297606     0.78500
C2147       C  0.83074365  0.22849245  0.96207631     0.79000
C2148       C  0.89216777  0.22453584  0.03775912     0.78000
C2149       C  0.89230381  0.17196005  0.96192953     0.78400
C2150       C  0.77099108  0.10470715  0.96009338     0.79500
C2151       C  0.82566640  0.10497150  0.03522453     0.78500
Zn2152     Zn  0.83413094  0.17111252  0.46740909     1.49700
Zn2153     Zn  0.86963954  0.21054877  0.51187582     1.49400
Zn2154     Zn  0.79549968  0.16952234  0.51144050     1.49100
Zn2155     Zn  0.83488176  0.13616687  0.51238236     1.49500
O2156       O  0.83371012  0.17194148  0.50079035    -1.82700
O2157       O  0.87398188  0.20660682  0.45521903    -0.73400
O2158       O  0.85579283  0.23450867  0.53174788    -0.73200
O2159       O  0.77117381  0.17176592  0.48521695    -0.72700
O2160       O  0.89630266  0.23702920  0.48551564    -0.73400
O2161       O  0.79905120  0.17535195  0.45453423    -0.73000
O2162       O  0.80458612  0.20483214  0.53215892    -0.73600
O2163       O  0.79618026  0.10816152  0.53015969    -0.72900
O2164       O  0.89678513  0.20133944  0.53191866    -0.73700
O2165       O  0.76833298  0.13076005  0.52932801    -0.73100
O2166       O  0.87173281  0.15011883  0.53340943    -0.73600
O2167       O  0.83665279  0.10982990  0.48674052    -0.73500
O2168       O  0.83001084  0.13113686  0.45560628    -0.73300
C2169       C  0.89567355  0.23142956  0.46413945     0.78500
C2170       C  0.82930631  0.22888967  0.53868010     0.79000
C2171       C  0.77568328  0.17464897  0.46375022     0.78000
C2172       C  0.77182180  0.10853776  0.53569496     0.78400
C2173       C  0.89442848  0.17643169  0.53931790     0.79500
C2174       C  0.83271620  0.10988764  0.46520668     0.78500
N2175       N  0.88436308  0.50348468  0.78360159    -0.35200
N2176       N  0.89587843  0.05241801  0.75134393    -0.55800
N2177       N  0.88472019  0.50875655  0.71524002    -0.35200
N2178       N  0.87089935  0.45973733  0.74728421    -0.55800
C2179       C  0.88588649  0.02536420  0.79800806     0.28400
C2180       C  0.87050512  0.47624874  0.79499554     0.28400
C2181       C  0.88606986  0.03254386  0.70351221     0.28400
C2182       C  0.87133865  0.48380226  0.70127071     0.28400
C2183       C  0.90638577  0.06953486  0.77072530     0.37000
C2184       C  0.90927140  0.07231499  0.73371738     0.37000
C2185       C  0.87500733  0.44462988  0.76471599     0.37000
C2186       C  0.87470449  0.44755453  0.72782846     0.37000
C2187       C  0.87308867  0.01187344  0.81889534    -0.20500
C2188       C  0.86185891  0.48072291  0.81648550    -0.20500
C2189       C  0.87304887  0.02272822  0.68194526    -0.20500
C2190       C  0.86350206  0.49166151  0.68064903    -0.20500
C2191       C  0.92427842  0.10062651  0.76518283    -0.21600
C2192       C  0.92734842  0.10218066  0.74193477    -0.21500
C2193       C  0.88172170  0.42291494  0.75631720    -0.21600
C2194       C  0.88098055  0.42443221  0.73282905    -0.21500
C2195       C  0.90237550  0.05755544  0.79330656    -0.16900
C2196       C  0.87042677  0.44908868  0.78791192    -0.16900
C2197       C  0.87035698  0.45577318  0.70573150    -0.16900
C2198       C  0.90491501  0.06367661  0.71031960    -0.16900
H2199       H  0.87273717  0.02270178  0.83471840     0.16000
H2200       H  0.85100586  0.46382366  0.82990714     0.16000
H2201       H  0.87253245  0.03692774  0.66828516     0.16000
H2202       H  0.85366727  0.47712179  0.66565088     0.16000
H2203       H  0.93542548  0.12028493  0.77666378     0.14300
H2204       H  0.94148407  0.12310202  0.73240635     0.14300
H2205       H  0.88622185  0.40745432  0.76617897     0.14300
H2206       H  0.88486243  0.41050686  0.72069358     0.14300
H2207       H  0.89684113  0.50802328  0.76851738     0.27600
H2208       H  0.89728612  0.51085554  0.72998066     0.27600
N2209       N  0.59581584  0.09471354  0.78515984    -0.35200
N2210       N  0.57777369  0.12739093  0.75326473    -0.55800
N2211       N  0.59691669  0.10297250  0.71681154    -0.35200
N2212       N  0.61614778  0.07161126  0.74872797    -0.55800
C2213       C  0.59291191  0.11472102  0.79892017     0.28400
C2214       C  0.61426402  0.08638942  0.79610704     0.28400
C2215       C  0.59491724  0.12580069  0.70629321     0.28400
C2216       C  0.61471886  0.09602277  0.70365816     0.28400
C2217       C  0.56369391  0.12886738  0.77251092     0.37000
C2218       C  0.56370832  0.13265273  0.73550019     0.37000
C2219       C  0.61374320  0.05251036  0.76580061     0.37000
C2220       C  0.61373604  0.05663163  0.72897005     0.37000
C2221       C  0.61009016  0.11976013  0.81872796    -0.20500
C2222       C  0.62414601  0.10232543  0.81675513    -0.20500
C2223       C  0.61254081  0.13415836  0.68648154    -0.20500
C2224       C  0.62481130  0.11506262  0.68470012    -0.20500
C2225       C  0.54121609  0.13600071  0.76704274    -0.21600
C2226       C  0.54043955  0.13737519  0.74356389    -0.21500
C2227       C  0.60914000  0.02490208  0.75686042    -0.21600
C2228       C  0.60940468  0.02772169  0.73336944    -0.21500
C2229       C  0.57224465  0.12542633  0.79489579    -0.16900
C2230       C  0.61828673  0.06157883  0.78905195    -0.16900
C2231       C  0.61845881  0.07036711  0.70730482    -0.16900
C2232       C  0.57348914  0.13512399  0.71244374    -0.16900
H2233       H  0.61175160  0.13398327  0.83325424     0.16000
H2234       H  0.63862608  0.10035681  0.82958658     0.16000
H2235       H  0.61480895  0.15099816  0.67398182     0.16000
H2236       H  0.63856065  0.11445649  0.67066530     0.16000
H2237       H  0.52682281  0.13972406  0.77873845     0.14300
H2238       H  0.52495890  0.14199175  0.73371319     0.14300
H2239       H  0.60633564  0.00516036  0.76628343     0.14300
H2240       H  0.60646223  0.01063257  0.72080293     0.14300
H2241       H  0.58206907  0.08384127  0.77082029     0.27600
H2242       H  0.58292251  0.08945496  0.73017206     0.27600
N2243       N  0.00055230  0.35964853  0.78421239    -0.35200
N2244       N  0.54850405  0.39628218  0.74999810    -0.55800
N2245       N  0.00167786  0.38239041  0.71598037    -0.35200
N2246       N  0.95429243  0.35000195  0.74991236    -0.55800
C2247       C  0.52583250  0.37464846  0.79783673     0.28400
C2248       C  0.97547271  0.35096255  0.79772826     0.28400
C2249       C  0.52752478  0.40629058  0.70635887     0.28400
C2250       C  0.97655308  0.38122432  0.70628605     0.28400
C2251       C  0.56568977  0.39463414  0.76713126     0.37000
C2252       C  0.56564527  0.40297987  0.73072921     0.37000
C2253       C  0.93603148  0.33208454  0.76698493     0.37000
C2254       C  0.93720442  0.34007118  0.73056203     0.37000
C2255       C  0.51644272  0.37248002  0.82045712    -0.20500
C2256       C  0.98492293  0.35779804  0.82035548    -0.20500
C2257       C  0.51857347  0.42074847  0.69048074    -0.20500
C2258       C  0.98622385  0.40476998  0.69040948    -0.20500
C2259       C  0.59393585  0.40034979  0.75864546    -0.21600
C2260       C  0.59313185  0.40384477  0.73541184    -0.21500
C2261       C  0.90719535  0.31042481  0.75848165    -0.21600
C2262       C  0.90841998  0.31455111  0.73518670    -0.21500
C2263       C  0.55721292  0.39162649  0.79044654    -0.16900
C2264       C  0.94432063  0.33804994  0.79023394    -0.16900
C2265       C  0.94538554  0.35765848  0.71028130    -0.16900
C2266       C  0.55829214  0.41270214  0.71016768    -0.16900
H2267       H  0.53095182  0.38128077  0.83556018     0.16000
H2268       H  0.97050267  0.35339222  0.83526189     0.16000
H2269       H  0.53353270  0.44017988  0.67975691     0.16000
H2270       H  0.97172562  0.40969094  0.67959271     0.16000
H2271       H  0.61344614  0.40219875  0.76784133     0.14300
H2272       H  0.61169673  0.40874538  0.72363154     0.14300
H2273       H  0.88716910  0.29372341  0.76790503     0.14300
H2274       H  0.88935912  0.30196538  0.72334247     0.14300
H2275       H  0.00050783  0.35598681  0.76670925     0.27600
H2276       H  0.00128839  0.36539679  0.72636338     0.27600
C2277       C  0.51534161  0.19432801  0.60502969     0.03700
C2278       C  0.98248695  0.17812870  0.60508589     0.03600
C2279       C  0.96636815  0.15839418  0.62321311    -0.16900
C2280       C  0.98174594  0.15333422  0.64108322     0.03700
C2281       C  0.51459338  0.16903444  0.64103285     0.03600
C2282       C  0.53090064  0.18953682  0.62318678    -0.16900
H2283       H  0.55599960  0.20135983  0.62315216     0.05700
H2284       H  0.94122979  0.14613420  0.62312139     0.05700
C2285       C  0.68210536  0.01792402  0.59955868     0.03700
C2286       C  0.67099846  0.48587304  0.60078873     0.03600
C2287       C  0.65345534  0.46940087  0.61982913    -0.16900
C2288       C  0.64520110  0.48343896  0.63704397     0.03700
C2289       C  0.65522683  0.01512209  0.63536908     0.03600
C2290       C  0.67413937  0.03206118  0.61697918    -0.16900
H2291       H  0.68260693  0.05663903  0.61611321     0.05700
H2292       H  0.64537527  0.44492187  0.62095943     0.05700
C2293       C  0.83953236  0.32179145  0.89830155     0.03700
C2294       C  0.82398159  0.33875482  0.89732022     0.03600
C2295       C  0.83028680  0.35889865  0.87876894    -0.16900
C2296       C  0.85032633  0.36142182  0.86087265     0.03700
C2297       C  0.86482527  0.34334017  0.86146286     0.03600
C2298       C  0.85998587  0.32486955  0.88072000    -0.16900
H2299       H  0.87170146  0.31175103  0.88177301     0.05700
H2300       H  0.81891131  0.37234946  0.87797744     0.05700
C2301       C  0.82593872  0.31278714  0.60570945     0.03700
C2302       C  0.81632879  0.33443086  0.60192211     0.03600
C2303       C  0.82507186  0.35854309  0.61767844    -0.16900
C2304       C  0.84311815  0.36170904  0.63707234     0.03700
C2305       C  0.85260727  0.33978518  0.64100474     0.03600
C2306       C  0.84252778  0.31491090  0.62561207    -0.16900
H2307       H  0.84956981  0.29800681  0.62829278     0.05700
H2308       H  0.81753197  0.37504226  0.61486856     0.05700
C2309       C  0.68294859  0.01121845  0.89632863     0.03700
C2310       C  0.66915562  0.47850881  0.89768041     0.03600
C2311       C  0.64976097  0.46002330  0.87976082    -0.16900
C2312       C  0.64230651  0.47258570  0.86123849     0.03700
C2313       C  0.65455329  0.00491086  0.86051825     0.03600
C2314       C  0.67494786  0.02373761  0.87786603    -0.16900
H2315       H  0.68460734  0.04852855  0.87704177     0.05700
H2316       H  0.63944518  0.43514175  0.88065713     0.05700
C2317       C  0.98378538  0.17787760  0.89750377     0.03700
C2318       C  0.51470769  0.18537367  0.90138421     0.03600
C2319       C  0.52834593  0.17426030  0.88613430    -0.16900
C2320       C  0.51227719  0.15598813  0.86699271     0.03700
C2321       C  0.98090842  0.14853701  0.86292738     0.03600
C2322       C  0.96851593  0.16183748  0.87755387    -0.16900
H2323       H  0.94558150  0.15809594  0.87430717     0.05700
H2324       H  0.55218889  0.18038595  0.88905453     0.05700
Zn2325     Zn  0.70629632  0.33723646  0.48800417     1.49700
Zn2326     Zn  0.66514696  0.36970648  0.48783959     1.49400
Zn2327     Zn  0.63171597  0.29534029  0.49025186     1.49100
Zn2328     Zn  0.66928998  0.33637475  0.53299826     1.49500
O2329       O  0.66822693  0.33477395  0.49964135    -1.82700
O2330       O  0.73209296  0.37658634  0.46921561    -0.73400
O2331       O  0.62548292  0.35370101  0.46935184    -0.73200
O2332       O  0.64444644  0.26842897  0.47305027    -0.72700
O2333       O  0.70107429  0.39608191  0.46689326    -0.73400
O2334       O  0.69485010  0.30047948  0.46726179    -0.73000
O2335       O  0.60507355  0.30266107  0.46840419    -0.73600
O2336       O  0.62992743  0.30170751  0.54692673    -0.72900
O2337       O  0.66734451  0.39857792  0.51347925    -0.73700
O2338       O  0.60374917  0.27259700  0.51724048    -0.73100
O2339       O  0.67304901  0.37615620  0.54411648    -0.73600
O2340       O  0.70561090  0.33341445  0.54498985    -0.73500
O2341       O  0.73210005  0.33483538  0.51415474    -0.73300
C2342       C  0.72609905  0.39680828  0.46162506     0.78500
C2343       C  0.60478234  0.32683078  0.46247259     0.79000
C2344       C  0.67001274  0.27468327  0.46379912     0.78000
C2345       C  0.60588950  0.27822620  0.53868111     0.78400
C2346       C  0.67152814  0.39833957  0.53499953     0.79500
C2347       C  0.72842373  0.33288486  0.53581690     0.78500
Zn2348     Zn  0.70967017  0.36939681  0.98880443     1.49700
Zn2349     Zn  0.66977872  0.29530450  0.98795927     1.49400
Zn2350     Zn  0.67248679  0.33335827  0.03377701     1.49100
Zn2351     Zn  0.63506701  0.33462081  0.99080874     1.49500
O2352       O  0.67178236  0.33300612  0.00029248    -1.82700
O2353       O  0.73561681  0.35695294  0.96956805    -0.73400
O2354       O  0.67094069  0.26921695  0.01396188    -0.73200
O2355       O  0.71110619  0.37180474  0.04570823    -0.72700
O2356       O  0.70655397  0.30576779  0.96697628    -0.73400
O2357       O  0.73623745  0.39722041  0.01467486    -0.73000
O2358       O  0.67249733  0.29568107  0.04485541    -0.73600
O2359       O  0.60833606  0.33308534  0.01757363    -0.72900
O2360       O  0.62973433  0.26957202  0.96974101    -0.73700
O2361       O  0.63418919  0.33151008  0.04779914    -0.73100
O2362       O  0.60743692  0.29818283  0.97073249    -0.73600
O2363       O  0.64790936  0.37312170  0.97244734    -0.73500
O2364       O  0.69863909  0.39567865  0.96941309    -0.73300
C2365       C  0.73100593  0.33111232  0.96189216     0.78500
C2366       C  0.67188602  0.27233838  0.03567051     0.79000
C2367       C  0.73388009  0.39526769  0.03637055     0.78000
C2368       C  0.61073630  0.33138517  0.03915621     0.78400
C2369       C  0.60776309  0.27416813  0.96413486     0.79500
C2370       C  0.67345340  0.39499855  0.96481223     0.78500
N2371       N  0.50258876  0.11120642  0.28494943    -0.35200
N2372       N  0.54451282  0.12088072  0.24855155    -0.55800
N2373       N  0.49341458  0.10166852  0.21608643    -0.35200
N2374       N  0.95232845  0.09527922  0.25316623    -0.55800
C2375       C  0.53012831  0.12768556  0.29577110     0.28400
C2376       C  0.98123281  0.11137205  0.29874629     0.28400
C2377       C  0.51808063  0.11288894  0.20177065     0.28400
C2378       C  0.96853644  0.09734465  0.20377697     0.28400
C2379       C  0.56181066  0.12145080  0.26650445     0.37000
C2380       C  0.55704008  0.11613942  0.22970245     0.37000
C2381       C  0.93608564  0.08821288  0.27289309     0.37000
C2382       C  0.93140113  0.08654753  0.23598758     0.37000
C2383       C  0.52611664  0.13924170  0.31630786    -0.20500
C2384       C  0.99505897  0.12828854  0.31840414    -0.20500
C2385       C  0.50888319  0.11612716  0.18015653    -0.20500
C2386       C  0.97763010  0.10487369  0.18112821    -0.20500
C2387       C  0.58541078  0.11695766  0.25907630    -0.21600
C2388       C  0.58241697  0.11365967  0.23566763    -0.21500
C2389       C  0.90496994  0.07622302  0.26828454    -0.21600
C2390       C  0.90218376  0.07640758  0.24500670    -0.21500
C2391       C  0.55746214  0.12819134  0.28918646    -0.16900
C2392       C  0.94922698  0.09375574  0.29501238    -0.16900
C2393       C  0.93796935  0.08649328  0.21234213    -0.16900
C2394       C  0.54787990  0.11754360  0.20709635    -0.16900
H2395       H  0.54358912  0.15269146  0.32907024     0.16000
H2396       H  0.98370599  0.13183721  0.33285459     0.16000
H2397       H  0.52277696  0.12440604  0.16485158     0.16000
H2398       H  0.96391120  0.10285513  0.16631952     0.16000
H2399       H  0.60310837  0.11672858  0.26945580     0.14300
H2400       H  0.59732171  0.11037969  0.22414459     0.14300
H2401       H  0.88624318  0.06885434  0.28032331     0.14300
H2402       H  0.88074227  0.06898624  0.23584192     0.14300
H2403       H  0.49772266  0.09620616  0.27117479     0.27600
H2404       H  0.49277884  0.09407490  0.23264183     0.27600
N2405       N  0.89194922  0.39507876  0.28486248    -0.35200
N2406       N  0.91709872  0.37018649  0.25177737    -0.55800
N2407       N  0.90672522  0.40236732  0.21560192    -0.35200
N2408       N  0.88306474  0.42903658  0.24814479    -0.55800
C2409       C  0.90775995  0.38619396  0.29869138     0.28400
C2410       C  0.88796946  0.41620671  0.29653599     0.28400
C2411       C  0.92583728  0.39399639  0.20570514     0.28400
C2412       C  0.90807774  0.42576317  0.20326731     0.28400
C2413       C  0.91378532  0.35295952  0.27035258     0.37000
C2414       C  0.91673471  0.35371614  0.23330677     0.37000
C2415       C  0.86523882  0.43070014  0.26489644     0.37000
C2416       C  0.87338959  0.43476359  0.22804914     0.37000
C2417       C  0.91293486  0.40121057  0.31966819    -0.20500
C2418       C  0.90118778  0.42062664  0.31810115    -0.20500
C2419       C  0.94037576  0.41307622  0.18718024    -0.20500
C2420       C  0.92863651  0.43261622  0.18532520    -0.20500
C2421       C  0.91110392  0.32519659  0.26356699    -0.21600
C2422       C  0.91104585  0.32495191  0.24003999    -0.21500
C2423       C  0.84380394  0.43709470  0.25536814    -0.21600
C2424       C  0.84895560  0.43967700  0.23209343    -0.21500
C2425       C  0.91685913  0.36430704  0.29295953    -0.16900
C2426       C  0.87047438  0.42951887  0.28872641    -0.16900
C2427       C  0.88822146  0.43792438  0.20659645    -0.16900
C2428       C  0.92671382  0.36689903  0.21140454    -0.16900
H2429       H  0.92394995  0.39853534  0.33469610     0.16000
H2430       H  0.90178859  0.43581028  0.33155005     0.16000
H2431       H  0.95641929  0.41188978  0.17543716     0.16000
H2432       H  0.93402805  0.44921957  0.17184358     0.16000
H2433       H  0.90993462  0.30703577  0.27399032     0.14300
H2434       H  0.90983617  0.30679151  0.22924860     0.14300
H2435       H  0.82675246  0.44032897  0.26430387     0.14300
H2436       H  0.83666857  0.44548212  0.21972986     0.14300
H2437       H  0.88208031  0.38536916  0.26905812     0.27600
H2438       H  0.89015432  0.38975540  0.22797106     0.27600
C2439       C  0.83369803  0.02118981  0.40145340     0.03700
C2440       C  0.81302450  0.48917495  0.39764560     0.03600
C2441       C  0.81520679  0.47556497  0.37710629    -0.16900
C2442       C  0.83948756  0.49147133  0.36131596     0.03700
C2443       C  0.86040833  0.02369948  0.36560745     0.03600
C2444       C  0.85711752  0.03754383  0.38547304    -0.16900
H2445       H  0.87316230  0.06195863  0.38847125     0.05700
H2446       H  0.79798125  0.45163727  0.37378766     0.05700
N2447       N  0.61769540  0.00273216  0.28455056    -0.35200
N2448       N  0.63761747  0.04868492  0.24918798    -0.55800
N2449       N  0.61027198  0.99933276  0.21633910    -0.35200
N2450       N  0.59152337  0.45331336  0.25165573    -0.55800
C2451       C  0.63995038  0.02878806  0.29478960     0.28400
C2452       C  0.61568587  0.47843514  0.29602834     0.28400
C2453       C  0.62846725  0.02378761  0.20304207     0.28400
C2454       C  0.60315946  0.47353738  0.20408366     0.28400
C2455       C  0.64128083  0.06640958  0.26765816     0.37000
C2456       C  0.63724841  0.06452175  0.23078006     0.37000
C2457       C  0.57690140  0.43856533  0.27104070     0.37000
C2458       C  0.57329607  0.43633316  0.23401233     0.37000
C2459       C  0.65311705  0.02119044  0.31255375    -0.20500
C2460       C  0.63829493  0.48925163  0.31297409    -0.20500
C2461       C  0.63351896  0.01349652  0.18229588    -0.20500
C2462       C  0.61712967  0.48160412  0.18282919    -0.20500
C2463       C  0.64342651  0.09384014  0.26103954    -0.21600
C2464       C  0.64094452  0.09267999  0.23756716    -0.21500
C2465       C  0.54875884  0.41239647  0.26554086    -0.21600
C2466       C  0.54711190  0.41073757  0.24199714    -0.21500
C2467       C  0.64525839  0.05861956  0.28998958    -0.16900
C2468       C  0.59080633  0.44764706  0.29307923    -0.16900
C2469       C  0.58094055  0.44347874  0.21081073    -0.16900
C2470       C  0.63628984  0.05446782  0.20804666    -0.16900
H2471       H  0.67085342  0.03699018  0.32435120     0.16000
H2472       H  0.64217280  0.47556207  0.32531169     0.16000
H2473       H  0.64636593  0.02743454  0.16780861     0.16000
H2474       H  0.61485758  0.46619517  0.16897568     0.16000
H2475       H  0.64764876  0.11314172  0.27185026     0.14300
H2476       H  0.64303162  0.11100352  0.22673689     0.14300
H2477       H  0.53154905  0.39590376  0.27712926     0.14300
H2478       H  0.52894058  0.39325094  0.23159789     0.14300
H2479       H  0.60148044  0.00167653  0.27279697     0.27600
H2480       H  0.59934113  0.99996013  0.23131382     0.27600
C2481       C  0.82639212  0.49068010  0.09688479     0.03700
C2482       C  0.83029710  0.02046120  0.10054954     0.03600
C2483       C  0.84286738  0.03574336  0.12127587    -0.16900
C2484       C  0.85508018  0.02429180  0.13762929     0.03700
C2485       C  0.85339869  0.49504970  0.13325150     0.03600
C2486       C  0.83901418  0.47910780  0.11277528    -0.16900
H2487       H  0.83629805  0.45659680  0.10954959     0.05700
H2488       H  0.84342337  0.05726906  0.12441924     0.05700
C2489       C  0.66854721  0.18557753  0.39887941     0.03700
C2490       C  0.68712649  0.17170643  0.39960235     0.03600
C2491       C  0.68535808  0.15211100  0.38168575    -0.16900
C2492       C  0.66492229  0.14523230  0.36341551     0.03700
C2493       C  0.64613353  0.15867661  0.36283199     0.03600
C2494       C  0.64808206  0.17858501  0.38042522    -0.16900
H2495       H  0.63354758  0.18880662  0.37970109     0.05700
H2496       H  0.69949354  0.14143819  0.38229772     0.05700
C2497       C  0.68002534  0.16340540  0.09784173     0.03700
C2498       C  0.66197567  0.17778610  0.09822903     0.03600
C2499       C  0.64053867  0.17082873  0.11593417    -0.16900
C2500       C  0.63733533  0.15040705  0.13334014     0.03700
C2501       C  0.65635477  0.13719670  0.13327824     0.03600
C2502       C  0.67723213  0.14356744  0.11553317    -0.16900
H2503       H  0.69123965  0.13273856  0.11536907     0.05700
H2504       H  0.62650969  0.18161524  0.11628421     0.05700
C2505       C  0.51803231  0.33014561  0.39870995     0.03700
C2506       C  0.98591582  0.31894804  0.39994002     0.03600
C2507       C  0.97194962  0.32727594  0.38272086    -0.16900
C2508       C  0.98866566  0.34545895  0.36389505     0.03700
C2509       C  0.52086593  0.35721360  0.36325131     0.03600
C2510       C  0.53497284  0.34945010  0.38057780    -0.16900
H2511       H  0.55987624  0.35915423  0.38012987     0.05700
H2512       H  0.94731723  0.31879632  0.38377880     0.05700
C2513       C  0.98559331  0.30791413  0.10315198     0.03700
C2514       C  0.51819883  0.32774877  0.10211944     0.03600
C2515       C  0.53324108  0.34966137  0.11969313    -0.16900
C2516       C  0.51699748  0.35223481  0.13836707     0.03700
C2517       C  0.98439053  0.33174311  0.13976005     0.03600
C2518       C  0.96954431  0.30947596  0.12237570    -0.16900
H2519       H  0.94474588  0.29372236  0.12335084     0.05700
H2520       H  0.55810992  0.36509920  0.11876796     0.05700
C2521       C  0.54185186  0.38009019  0.34615738    -0.03900
C2522       C  0.55883765  0.41153608  0.35226277    -0.01100
C2523       C  0.57392036  0.43398474  0.33522711     0.03900
C2524       C  0.57826700  0.42507535  0.31293831    -0.03900
C2525       C  0.56845545  0.39330885  0.30943943    -0.01000
C2526       C  0.54787041  0.37078997  0.32501425     0.03900
C2527       C  0.06060700  0.42058262  0.37612236     0.38600
C2528       C  0.58017542  0.38378554  0.29031964     0.38600
C2529       C  0.53366194  0.33816312  0.31968111     0.37000
C2530       C  0.58368853  0.46554875  0.34140151     0.37000
N2531       N  0.52211708  0.31206005  0.31552112    -0.37800
N2532       N  0.09200060  0.49014574  0.34796704    -0.37800
N2533       N  0.58960484  0.37612576  0.27515307    -0.37300
N2534       N  0.06172856  0.42780211  0.39509892    -0.42100
C2535       C  0.53474501  0.37667984  0.15616481    -0.03900
C2536       C  0.52792237  0.40034373  0.16027427    -0.01100
C2537       C  0.54136786  0.42058513  0.17909259     0.03900
C2538       C  0.56414356  0.41951549  0.19262533    -0.03900
C2539       C  0.57241350  0.39712485  0.18779122    -0.01000
C2540       C  0.55768653  0.37565832  0.16974258     0.03900
C2541       C  0.50804507  0.40473702  0.14460726     0.38600
C2542       C  0.59604772  0.39617559  0.20150932     0.38600
C2543       C  0.56587647  0.35223490  0.16545318     0.37000
C2544       C  0.53070624  0.44160664  0.18521066     0.37000
N2545       N  0.57248105  0.33358567  0.16210469    -0.37800
N2546       N  0.52158277  0.45778172  0.19043079    -0.37800
N2547       N  0.61488878  0.39547411  0.21251879    -0.37300
N2548       N  0.49250221  0.40857914  0.13200564    -0.37300
C2549       C  0.66212268  0.12250154  0.34566579    -0.03900
C2550       C  0.68426944  0.13109106  0.32807867    -0.01100
C2551       C  0.67984184  0.10976982  0.31046383     0.03900
C2552       C  0.65198659  0.08082344  0.30934543    -0.03900
C2553       C  0.62966195  0.07296090  0.32667874    -0.01000
C2554       C  0.63633234  0.09229190  0.34584643     0.03900
C2555       C  0.71169632  0.16162722  0.32828935     0.38600
C2556       C  0.59863423  0.04667281  0.32375021     0.38600
C2557       C  0.61806514  0.08009497  0.36638904     0.37000
C2558       C  0.70345848  0.11789624  0.29320793     0.37000
N2559       N  0.60403038  0.06966838  0.38295020    -0.37800
N2560       N  0.72216787  0.12438866  0.27931173    -0.37800
N2561       N  0.57358800  0.02632829  0.32103274    -0.37300
N2562       N  0.73363374  0.18598793  0.32848341    -0.37300
C2563       C  0.64261148  0.07605414  0.18859353    -0.03900
C2564       C  0.67090254  0.10458190  0.18721283    -0.01100
C2565       C  0.67528248  0.12533700  0.16949515     0.03900
C2566       C  0.65375702  0.11556505  0.15132369    -0.03900
C2567       C  0.62875216  0.08513018  0.15072806    -0.01000
C2568       C  0.62090858  0.06718281  0.17046254     0.03900
C2569       C  0.69561739  0.11225265  0.20355477     0.38600
C2570       C  0.61319040  0.07127228  0.12928995     0.38600
C2571       C  0.59010835  0.04035327  0.17210784     0.37000
C2572       C  0.70206757  0.15630597  0.16968581     0.37000
N2573       N  0.56520869  0.01937042  0.17313655    -0.37800
N2574       N  0.72340418  0.18106610  0.16988740    -0.37800
N2575       N  0.60156866  0.05970374  0.11206135    -0.37300
N2576       N  0.71533902  0.11816964  0.21655246    -0.37300
C2577       C  0.93570393  0.35820215  0.31001931    -0.03900
C2578       C  0.92486775  0.32883982  0.31989757    -0.01100
C2579       C  0.94397561  0.32426112  0.33532357     0.03900
C2580       C  0.97089042  0.35002739  0.34491924    -0.03900
C2581       C  0.97881522  0.37979506  0.33727961    -0.01000
C2582       C  0.96438713  0.38315014  0.31774234     0.03900
C2583       C  0.89365494  0.30371310  0.31532079     0.38600
C2584       C  0.99622988  0.40669214  0.35173118     0.38600
C2585       C  0.97814709  0.41302325  0.30662277     0.37000
C2586       C  0.93524231  0.29299612  0.34172113     0.37000
N2587       N  0.98904354  0.43680852  0.29774898    -0.37800
N2588       N  0.92832042  0.26812493  0.34697028    -0.37800
N2589       N  0.00849738  0.42872433  0.36303057    -0.37300
N2590       N  0.86880735  0.28347159  0.31170838    -0.37300
C2591       C  0.93812687  0.35246238  0.19387756    -0.03900
C2592       C  0.96088315  0.34434219  0.19914877    -0.01100
C2593       C  0.97262987  0.33342739  0.18178057     0.03900
C2594       C  0.96527927  0.33437849  0.15860192    -0.03900
C2595       C  0.94070982  0.33968528  0.15355385    -0.01000
C2596       C  0.92626102  0.34704198  0.17121389     0.03900
C2597       C  0.97204405  0.34615624  0.22232027     0.38600
C2598       C  0.93055178  0.33855152  0.13014757     0.38600
C2599       C  0.89897243  0.34898121  0.16592994     0.37000
C2600       C  0.49121795  0.32008170  0.18806605     0.37000
N2601       N  0.87732619  0.35069316  0.16170721    -0.37800
N2602       N  0.50541079  0.30871392  0.19328708    -0.37800
N2603       N  0.92192898  0.33753546  0.11161510    -0.37300
N2604       N  0.98000847  0.34595285  0.24089575    -0.37300
C2605       C  0.85847860  0.44357526  0.30617652    -0.03900
C2606       C  0.84335861  0.42759569  0.32639787    -0.01100
C2607       C  0.83937229  0.44361348  0.34489667     0.03900
C2608       C  0.84283000  0.47333738  0.34154768    -0.03900
C2609       C  0.85079752  0.48569826  0.31923433    -0.01000
C2610       C  0.86340223  0.47370610  0.30347864     0.03900
C2611       C  0.83247766  0.39488274  0.32851959     0.38600
C2612       C  0.84362845  0.00895005  0.31135672     0.38600
C2613       C  0.88503167  0.49420568  0.28664434     0.37000
C2614       C  0.83314726  0.42957470  0.36735064     0.37000
N2615       N  0.90385064  0.01113362  0.27413408    -0.37800
N2616       N  0.82809918  0.41823756  0.38522240    -0.37800
N2617       N  0.83719956  0.02665504  0.30474629    -0.37300
N2618       N  0.82366122  0.36876669  0.33024072    -0.37300
C2619       C  0.86387849  0.47926578  0.15030780    -0.03900
C2620       C  0.84260528  0.44912486  0.15851808    -0.01100
C2621       C  0.85146809  0.43525909  0.17565416     0.03900
C2622       C  0.88069418  0.45197676  0.18648250    -0.03900
C2623       C  0.90227645  0.48166686  0.17803066    -0.01000
C2624       C  0.89453132  0.49431041  0.15919247     0.03900
C2625       C  0.81082317  0.43254162  0.15038105     0.38600
C2626       C  0.93203117  0.49986334  0.18933942     0.38600
C2627       C  0.91817784  0.02292016  0.14892022     0.37000
C2628       C  0.83011824  0.40365424  0.18250419     0.37000
N2629       N  0.93713629  0.04553196  0.14061454    -0.37800
N2630       N  0.81318714  0.37846176  0.18800779    -0.37800
N2631       N  0.95555778  0.01464566  0.19855180    -0.37300
N2632       N  0.78534762  0.41883247  0.14417670    -0.37300
C2633       C  0.92907021  0.07867824  0.31523482    -0.03900
C2634       C  0.90909517  0.08845279  0.32357704    -0.01100
C2635       C  0.88682021  0.07076440  0.34022002     0.03900
C2636       C  0.88607550  0.04446154  0.34988370    -0.03900
C2637       C  0.90940695  0.03788810  0.34404005    -0.01000
C2638       C  0.92949752  0.05359796  0.32578269     0.03900
C2639       C  0.91065784  0.11593537  0.31429145     0.38600
C2640       C  0.91282079  0.51462296  0.35651870     0.38600
C2641       C  0.94847499  0.04199146  0.31649194     0.37000
C2642       C  0.86342102  0.07850087  0.34610433     0.37000
N2643       N  0.96255063  0.03183053  0.30854471    -0.37800
N2644       N  0.84473604  0.08465102  0.35073552    -0.37800
N2645       N  0.91543498  0.49629336  0.36658300    -0.37300
N2646       N  0.91193753  0.13781591  0.30677308    -0.37300
C2647       C  0.87005968  0.04356211  0.15868925    -0.03900
C2648       C  0.86385942  0.02935562  0.18019956    -0.01100
C2649       C  0.88685451  0.04214685  0.19718818     0.03900
C2650       C  0.91119717  0.07327819  0.19564623    -0.03900
C2651       C  0.91017855  0.09101092  0.17742011    -0.01000
C2652       C  0.89256954  0.07572102  0.15770788     0.03900
C2653       C  0.83431874  0.00177469  0.18473547     0.38600
C2654       C  0.92864596  0.12449867  0.17840723     0.38600
C2655       C  0.89955099  0.09297633  0.13660037     0.37000
C2656       C  0.88633315  0.02237037  0.21509607     0.37000
N2657       N  0.90529367  0.10706951  0.11988182    -0.37800
N2658       N  0.88611681  0.00653569  0.22937265    -0.37800
N2659       N  0.94351054  0.15118306  0.17928352    -0.37300
N2660       N  0.81051614  0.48006249  0.18850660    -0.37300
C2661       C  0.58149850  0.13517144  0.30721577    -0.03900
C2662       C  0.57304128  0.11737501  0.32745290    -0.01100
C2663       C  0.59297404  0.12755215  0.34644294     0.03900
C2664       C  0.62374073  0.15168725  0.34399593    -0.03900
C2665       C  0.63310663  0.16878367  0.32358652    -0.01000
C2666       C  0.61156821  0.16150163  0.30564749     0.03900
C2667       C  0.54380577  0.08860441  0.32905410     0.38600
C2668       C  0.66435033  0.19493557  0.32163650     0.38600
C2669       C  0.62004615  0.18196858  0.28622671     0.37000
C2670       C  0.58106967  0.11476897  0.36885141     0.37000
N2671       N  0.62717713  0.19874988  0.27096086    -0.37800
N2672       N  0.57119798  0.10508115  0.38676286    -0.37800
N2673       N  0.68923578  0.21589411  0.32011326    -0.37300
N2674       N  0.52083785  0.06538631  0.33094039    -0.37300
C2675       C  0.57123461  0.12578834  0.18819101    -0.03900
C2676       C  0.56436703  0.10643535  0.16872140    -0.01100
C2677       C  0.58427968  0.11680772  0.14971604     0.03900
C2678       C  0.61409297  0.14310184  0.15170460    -0.03900
C2679       C  0.62198766  0.16166828  0.17153787    -0.01000
C2680       C  0.59991634  0.15413297  0.18900943     0.03900
C2681       C  0.53677114  0.07600042  0.16799216     0.38600
C2682       C  0.65253942  0.18892127  0.17373248     0.38600
C2683       C  0.60639349  0.17620346  0.20730735     0.37000
C2684       C  0.57322178  0.10177164  0.12768070     0.37000
N2685       N  0.61155057  0.19408416  0.22170496    -0.37800
N2686       N  0.56404482  0.09027326  0.10996874    -0.37800
N2687       N  0.67692936  0.21060495  0.17567065    -0.37300
N2688       N  0.51478848  0.05170070  0.16721954    -0.37300
C2689       C  0.66637874  0.20186155  0.08145972    -0.03900
C2690       C  0.65305024  0.19366175  0.05944472    -0.01100
C2691       C  0.65692592  0.21672095  0.04384067     0.03900
C2692       C  0.67166513  0.24820274  0.05087091    -0.03900
C2693       C  0.68442551  0.25613687  0.07333049    -0.01000
C2694       C  0.68193651  0.23313519  0.08835560     0.03900
C2695       C  0.63264492  0.16140983  0.05350561     0.38600
C2696       C  0.70037296  0.28799439  0.08132678     0.38600
C2697       C  0.69424783  0.24160773  0.11145336     0.37000
C2698       C  0.64499788  0.20741068  0.02075100     0.37000
N2699       N  0.70390803  0.24853013  0.12988118    -0.37800
N2700       N  0.63590023  0.19961860  0.00228206    -0.37800
N2701       N  0.71283382  0.31329154  0.08788391    -0.37300
N2702       N  0.61543675  0.13595854  0.04852037    -0.37300
C2703       C  0.58558710  0.32911025  0.05449422    -0.03900
C2704       C  0.57301059  0.34844799  0.05104683    -0.01100
C2705       C  0.54974244  0.34679426  0.06575343     0.03900
C2706       C  0.53844877  0.32565815  0.08411007    -0.03900
C2707       C  0.55179722  0.30710794  0.08802322    -0.01000
C2708       C  0.57451307  0.30818288  0.07302779     0.03900
C2709       C  0.58570119  0.37187256  0.03341549     0.38600
C2710       C  0.54447486  0.28909355  0.10879413     0.38600
C2711       C  0.58646292  0.28761899  0.07682954     0.37000
C2712       C  0.53962226  0.36896713  0.06309903     0.37000
N2713       N  0.59590966  0.27115534  0.07989917    -0.37800
N2714       N  0.53258989  0.38744393  0.06076598    -0.37800
N2715       N  0.53945870  0.27531209  0.12560586    -0.37300
N2716       N  0.59602609  0.39077828  0.01952401    -0.37300
C2717       C  0.80295775  0.46840990  0.08022766    -0.03900
C2718       C  0.81150148  0.46300084  0.05851056    -0.01100
C2719       C  0.78911675  0.43958944  0.04397000     0.03900
C2720       C  0.75778528  0.42106448  0.05115232    -0.03900
C2721       C  0.74934039  0.42739365  0.07280162    -0.01000
C2722       C  0.77185663  0.45034512  0.08732662     0.03900
C2723       C  0.84356329  0.48078902  0.05137769     0.38600
C2724       C  0.71725339  0.41103090  0.08016103     0.38600
C2725       C  0.76312736  0.45454578  0.11015934     0.37000
C2726       C  0.79889086  0.43438441  0.02186962     0.37000
N2727       N  0.75614052  0.95787607  0.12843779    -0.37800
N2728       N  0.80688875  0.43058173  0.00420658    -0.37800
N2729       N  0.69168926  0.39808988  0.08605203    -0.37300
N2730       N  0.86907426  0.49461385  0.04543634    -0.37300
C2731       C  0.67049932  0.20847928  0.41626238    -0.03900
C2732       C  0.65677839  0.19883584  0.43804491    -0.01100
C2733       C  0.65786455  0.22062941  0.45399615     0.03900
C2734       C  0.67064979  0.25190398  0.44774164    -0.03900
C2735       C  0.68235134  0.26113094  0.42539122    -0.01000
C2736       C  0.68254897  0.23965436  0.40983798     0.03900
C2737       C  0.63842048  0.16622888  0.44322976     0.38600
C2738       C  0.69211836  0.29223323  0.41779036     0.38600
C2739       C  0.69342283  0.24930822  0.38666125     0.37000
C2740       C  0.64570729  0.21077664  0.47686428     0.37000
N2741       N  0.70173962  0.25694318  0.36811259    -0.37800
N2742       N  0.63613620  0.20293701  0.49513599    -0.37800
N2743       N  0.69951714  0.31691072  0.41168927    -0.37300
N2744       N  0.62266251  0.14036114  0.44757661    -0.37300
C2745       C  0.57958085  0.32372695  0.44725963    -0.03900
C2746       C  0.56163367  0.33673097  0.45398592    -0.01100
C2747       C  0.54080318  0.33806740  0.43844921     0.03900
C2748       C  0.53597327  0.32434313  0.41649819    -0.03900
C2749       C  0.55285659  0.30976190  0.41022490    -0.01000
C2750       C  0.57454807  0.30946731  0.42553822     0.03900
C2751       C  0.56461885  0.34875411  0.47707201     0.38600
C2752       C  0.54958431  0.29693298  0.38737618     0.38600
C2753       C  0.59293528  0.29603891  0.41838865     0.37000
C2754       C  0.52744461  0.35683954  0.44433540     0.37000
N2755       N  0.60759099  0.28536524  0.41261276    -0.37800
N2756       N  0.01919409  0.37386398  0.44903274    -0.37800
N2757       N  0.54726262  0.28698979  0.36909237    -0.37300
N2758       N  0.56684744  0.35796655  0.49558199    -0.37300
C2759       C  0.79040487  0.46811461  0.41524376    -0.03900
C2760       C  0.80129473  0.46133217  0.43549775    -0.01100
C2761       C  0.78034167  0.43884093  0.45095396     0.03900
C2762       C  0.74832020  0.42156809  0.44586307    -0.03900
C2763       C  0.73749440  0.42765102  0.42529322    -0.01000
C2764       C  0.75831102  0.45073704  0.41015276     0.03900
C2765       C  0.83427752  0.47503976  0.43947214     0.38600
C2766       C  0.70507187  0.40879922  0.41890285     0.38600
C2767       C  0.74672091  0.45520779  0.38862389     0.37000
C2768       C  0.79190586  0.43378639  0.47226018     0.37000
N2769       N  0.73734363  0.45832175  0.37135081    -0.37800
N2770       N  0.80134007  0.43012571  0.48929996    -0.37800
N2771       N  0.67926649  0.39364304  0.41373166    -0.37300
N2772       N  0.86043054  0.48495195  0.44277675    -0.37300
C2773       C  0.53512706  0.20805516  0.91918918    -0.03900
C2774       C  0.54324048  0.19797704  0.93913962    -0.01100
C2775       C  0.56609520  0.21960222  0.95427051     0.03900
C2776       C  0.58213828  0.25144303  0.94909752    -0.03900
C2777       C  0.57412398  0.26156938  0.92909390    -0.01000
C2778       C  0.55090916  0.23999486  0.91417169     0.03900
C2779       C  0.52969846  0.16526151  0.94347161     0.38600
C2780       C  0.59107783  0.29408702  0.92309765     0.38600
C2781       C  0.54538167  0.25053942  0.89258292     0.37000
C2782       C  0.57259147  0.20901072  0.97543648     0.37000
N2783       N  0.54164375  0.25924344  0.87525635    -0.37800
N2784       N  0.57732828  0.20037848  0.99241959    -0.37800
N2785       N  0.60470287  0.32001479  0.91837127    -0.37300
N2786       N  0.51980055  0.13931693  0.94717673    -0.37300
C2787       C  0.67224640  0.46164441  0.91759881    -0.03900
C2788       C  0.69998937  0.46175115  0.92177715    -0.01100
C2789       C  0.70109934  0.44186800  0.93834426     0.03900
C2790       C  0.67364623  0.41961276  0.94981582    -0.03900
C2791       C  0.64589619  0.42021472  0.94577150    -0.01000
C2792       C  0.64536795  0.44104392  0.92993746     0.03900
C2793       C  0.72678536  0.48002976  0.90748015     0.38600
C2794       C  0.61714170  0.39908373  0.95726601     0.38600
C2795       C  0.61626624  0.43988891  0.92526509     0.37000
C2796       C  0.73079890  0.44440529  0.94290036     0.37000
N2797       N  0.59305911  0.43876192  0.92137953    -0.37800
N2798       N  0.75463218  0.44677494  0.94652590    -0.37800
N2799       N  0.59397614  0.38220485  0.96610920    -0.37300
N2800       N  0.74834979  0.99387898  0.89593141    -0.37300
C2801       C  0.75110485  0.33014015  0.55099943    -0.03900
C2802       C  0.78337098  0.34777865  0.54684799    -0.01100
C2803       C  0.80471591  0.35003464  0.56368590     0.03900
C2804       C  0.79436542  0.33090036  0.58317377    -0.03900
C2805       C  0.76221182  0.31115915  0.58639065    -0.01000
C2806       C  0.74072110  0.31140130  0.57081420     0.03900
C2807       C  0.79501117  0.36404413  0.52544714     0.38600
C2808       C  0.75106053  0.29226773  0.60675509     0.38600
C2809       C  0.70781623  0.29213268  0.57531177     0.37000
C2810       C  0.83680275  0.37442439  0.56188675     0.37000
N2811       N  0.68159221  0.27695882  0.57901594    -0.37800
N2812       N  0.86195116  0.39489037  0.56027772    -0.37800
N2813       N  0.74193531  0.27731985  0.62303938    -0.37300
N2814       N  0.80462980  0.37636107  0.50818040    -0.37300
C2815       C  0.80003068  0.33510970  0.91460147    -0.03900
C2816       C  0.80865713  0.34797363  0.93687977    -0.01100
C2817       C  0.78591282  0.34500521  0.95272327     0.03900
C2818       C  0.75443247  0.33083710  0.94613777    -0.03900
C2819       C  0.74580102  0.31845952  0.92378685    -0.01000
C2820       C  0.76839609  0.32067957  0.90812955     0.03900
C2821       C  0.84105773  0.36693233  0.94299405     0.38600
C2822       C  0.71375758  0.30469949  0.91649749     0.38600
C2823       C  0.75916653  0.30939788  0.88489610     0.37000
C2824       C  0.79487650  0.35608433  0.97604486     0.37000
N2825       N  0.75179119  0.30066744  0.86630104    -0.37800
N2826       N  0.80195227  0.36454862  0.99472617    -0.37800
N2827       N  0.68818266  0.29382886  0.91074948    -0.37300
N2828       N  0.86666680  0.38301230  0.94828999    -0.37300
C2829       C  0.67459503  0.42409118  0.55014320    -0.03900
C2830       C  0.69264921  0.43194716  0.57046921    -0.01100
C2831       C  0.69207719  0.45263834  0.58661431     0.03900
C2832       C  0.67518820  0.46762185  0.58218160    -0.03900
C2833       C  0.65796174  0.46068349  0.56159067    -0.01000
C2834       C  0.65795056  0.43941673  0.54553891     0.03900
C2835       C  0.71205527  0.41877349  0.57504154     0.38600
C2836       C  0.63725191  0.47252284  0.55802872     0.38600
C2837       C  0.63929224  0.43225846  0.52491935     0.37000
C2838       C  0.70701809  0.45647558  0.60865769     0.37000
N2839       N  0.62445044  0.42682203  0.50847990    -0.37800
N2840       N  0.71852062  0.45883889  0.62631958    -0.37800
N2841       N  0.62045523  0.98148671  0.55460588    -0.37300
N2842       N  0.72747425  0.40823604  0.57870673    -0.37300
C2843       C  0.58007567  0.25700506  0.55448868    -0.03900
C2844       C  0.56209212  0.22480751  0.54988769    -0.01100
C2845       C  0.54020460  0.20450383  0.56597957     0.03900
C2846       C  0.53470857  0.21599987  0.58644153    -0.03900
C2847       C  0.55165974  0.24817746  0.59070821    -0.01000
C2848       C  0.57397991  0.26855316  0.57486316     0.03900
C2849       C  0.56698542  0.21192142  0.52911408     0.38600
C2850       C  0.54734237  0.26027943  0.61210573     0.38600
C2851       C  0.59045025  0.30150896  0.57970115     0.37000
C2852       C  0.52575462  0.17149360  0.56228332     0.37000
N2853       N  0.60357890  0.32775806  0.58365403    -0.37800
N2854       N  0.51541572  0.14536790  0.55884858    -0.37800
N2855       N  0.54428143  0.27004759  0.62924398    -0.37300
N2856       N  0.57061711  0.20148926  0.51252880    -0.37300
C2857       C  0.92140166  0.33822974  0.80674171    -0.03900
C2858       C  0.89735179  0.31099441  0.81655155    -0.01100
C2859       C  0.87708177  0.31271461  0.83261595     0.03900
C2860       C  0.88395974  0.34174486  0.84208106    -0.03900
C2861       C  0.91055070  0.36855330  0.83399737    -0.01000
C2862       C  0.92614941  0.36699470  0.81450968     0.03900
C2863       C  0.89434731  0.28144241  0.81101855     0.38600
C2864       C  0.92612241  0.39622474  0.84792109     0.38600
C2865       C  0.94811875  0.39528892  0.80300105     0.37000
C2866       C  0.84979946  0.28439815  0.83984963     0.37000
N2867       N  0.96517363  0.41775727  0.79352883    -0.37800
N2868       N  0.82812276  0.26175139  0.84566688    -0.37800
N2869       N  0.94059664  0.41832408  0.85883368    -0.37300
N2870       N  0.89213944  0.25788678  0.80673521    -0.37300
C2871       C  0.58096520  0.41295765  0.80754554    -0.03900
C2872       C  0.60534596  0.40887184  0.81541030    -0.01100
C2873       C  0.62720799  0.43020290  0.83130049     0.03900
C2874       C  0.62093413  0.45116802  0.84308676    -0.03900
C2875       C  0.59307507  0.45035970  0.83816645    -0.01000
C2876       C  0.57678263  0.43599430  0.81809959     0.03900
C2877       C  0.60690674  0.38197492  0.80849925     0.38600
C2878       C  0.57706543  0.45680841  0.85595069     0.38600
C2879       C  0.55429825  0.44357116  0.80945543     0.37000
C2880       C  0.65539201  0.42977103  0.83596896     0.37000
N2881       N  0.53661287  0.44993859  0.80256436    -0.37800
N2882       N  0.67793765  0.42951225  0.83972367    -0.37800
N2883       N  0.56278893  0.45982696  0.87020228    -0.37300
N2884       N  0.60809949  0.36041743  0.80307825    -0.37300
C2885       C  0.62457158  0.46375034  0.65600155    -0.03900
C2886       C  0.59541849  0.43752086  0.65100298    -0.01100
C2887       C  0.57596524  0.41931362  0.66886376     0.03900
C2888       C  0.58266963  0.42959836  0.69191349    -0.03900
C2889       C  0.61234483  0.45576218  0.69685781    -0.01000
C2890       C  0.63390429  0.47080839  0.67908683     0.03900
C2891       C  0.58495882  0.42934919  0.62746164     0.38600
C2892       C  0.62159372  0.46736052  0.72000398     0.38600
C2893       C  0.66626287  0.49179582  0.68462765     0.37000
C2894       C  0.54997777  0.38903519  0.66341611     0.37000
N2895       N  0.69193972  0.00717017  0.68915559    -0.37800
N2896       N  0.52986896  0.36461049  0.65875880    -0.37800
N2897       N  0.62987593  0.47658755  0.73839023    -0.37300
N2898       N  0.57664218  0.42305918  0.60868089    -0.37300
C2899       C  0.87553793  0.34351578  0.65931080    -0.03900
C2900       C  0.90285957  0.34331518  0.65318428    -0.01100
C2901       C  0.92368908  0.34505489  0.67011797     0.03900
C2902       C  0.92063670  0.35208976  0.69298769    -0.03900
C2903       C  0.89372214  0.35295500  0.69917980    -0.01000
C2904       C  0.87030157  0.34626780  0.68277783     0.03900
C2905       C  0.91018871  0.34157116  0.62941021     0.38600
C2906       C  0.88926620  0.35918686  0.72266792     0.38600
C2907       C  0.84015250  0.33981979  0.69052176     0.37000
C2908       C  0.94681781  0.33706719  0.66417813     0.37000
N2909       N  0.81615455  0.33416436  0.69729535    -0.37800
N2910       N  0.96431815  0.32948959  0.65926124    -0.37800
N2911       N  0.88558614  0.36314278  0.74163817    -0.37300
N2912       N  0.91654315  0.34010055  0.61061164    -0.37300
C2913       C  0.55894166  0.13308787  0.81504645    -0.03900
C2914       C  0.57036394  0.16413941  0.82127496    -0.01100
C2915       C  0.55651044  0.17152180  0.83930540     0.03900
C2916       C  0.53036222  0.14774827  0.85089658    -0.03900
C2917       C  0.52095772  0.11659777  0.84606595    -0.01000
C2918       C  0.53476142  0.10929311  0.82788679     0.03900
C2919       C  0.59571576  0.18854821  0.80847814     0.38600
C2920       C  0.99648094  0.09215233  0.85933588     0.38600
C2921       C  0.52279709  0.07726803  0.82150451     0.37000
C2922       C  0.56832226  0.20379022  0.84494123     0.37000
N2923       N  0.51280805  0.05169337  0.81622500    -0.37800
N2924       N  0.57819438  0.22958742  0.84946627    -0.37800
N2925       N  0.97673080  0.07260471  0.86981218    -0.37300
N2926       N  0.61578611  0.20790930  0.79810358    -0.37300
C2927       C  0.62689459  0.04506865  0.80656952    -0.03900
C2928       C  0.61089667  0.03599625  0.82768118    -0.01100
C2929       C  0.62284556  0.02715343  0.84601440     0.03900
C2930       C  0.64600580  0.01970375  0.84206441    -0.03900
C2931       C  0.66043574  0.02589605  0.82049630    -0.01000
C2932       C  0.65229922  0.04029469  0.80328579     0.03900
C2933       C  0.58147618  0.03460113  0.83047632     0.38600
C2934       C  0.68450832  0.01852732  0.81643320     0.38600
C2935       C  0.67068424  0.05068969  0.78261701     0.37000
C2936       C  0.61165301  0.02633373  0.86903323     0.37000
N2937       N  0.68536271  0.05872497  0.76610423    -0.37800
N2938       N  0.60285771  0.02591133  0.88740510    -0.37800
N2939       N  0.70360965  0.01245406  0.81332931    -0.37300
N2940       N  0.55781970  0.03306828  0.83278875    -0.37300
C2941       C  0.62808364  0.05764717  0.68793924    -0.03900
C2942       C  0.65970408  0.06791182  0.68447841    -0.01100
C2943       C  0.66875531  0.05487751  0.66683772     0.03900
C2944       C  0.64612253  0.03126984  0.65258706    -0.03900
C2945       C  0.61466110  0.02257115  0.65520017    -0.01000
C2946       C  0.60560731  0.03501186  0.67322540     0.03900
C2947       C  0.68285486  0.09162000  0.69936860     0.38600
C2948       C  0.59187045  0.50194926  0.63895204     0.38600
C2949       C  0.57302534  0.02379180  0.67711815     0.37000
C2950       C  0.70133780  0.06535021  0.66372973     0.37000
N2951       N  0.54699646  0.01451642  0.68037675    -0.37800
N2952       N  0.72733169  0.07368185  0.66129066    -0.37800
N2953       N  0.57332424  0.48565927  0.62584796    -0.37300
N2954       N  0.70121551  0.11054910  0.71129764    -0.37300
C2955       C  0.55978283  0.14553979  0.69382932    -0.03900
C2956       C  0.54802345  0.12770445  0.67346121    -0.01100
C2957       C  0.53844938  0.13882303  0.65509555     0.03900
C2958       C  0.53231408  0.16285351  0.65867588    -0.03900
C2959       C  0.54352363  0.18086072  0.67880622    -0.01000
C2960       C  0.55917505  0.17348858  0.69560884     0.03900
C2961       C  0.54423512  0.09719335  0.67145249     0.38600
C2962       C  0.54022163  0.20771958  0.68163118     0.38600
C2963       C  0.57498496  0.19495298  0.71430894     0.37000
C2964       C  0.53766708  0.12743356  0.63212052     0.37000
N2965       N  0.58747127  0.21208874  0.72926266    -0.37800
N2966       N  0.53794493  0.11902718  0.61369331    -0.37800
N2967       N  0.53763784  0.22921568  0.68375125    -0.37300
N2968       N  0.54088207  0.07271773  0.66980259    -0.37300
C2969       C  0.92132893  0.07986435  0.81205884    -0.03900
C2970       C  0.95378882  0.09788908  0.80951295    -0.01100
C2971       C  0.97059199  0.12455429  0.82299359     0.03900
C2972       C  0.95958899  0.12568326  0.84494487    -0.03900
C2973       C  0.92755474  0.10419580  0.84932598    -0.01000
C2974       C  0.90805292  0.08544222  0.83136897     0.03900
C2975       C  0.96932276  0.08944016  0.79259182     0.38600
C2976       C  0.91418429  0.09984218  0.87193414     0.38600
C2977       C  0.87496170  0.07338820  0.83248872     0.37000
C2978       C  0.49454579  0.15245213  0.81242734     0.37000
N2979       N  0.84854607  0.06377859  0.83339549    -0.37800
N2980       N  0.51280928  0.17508059  0.80371265    -0.37800
N2981       N  0.90283598  0.09574730  0.88978327    -0.37300
N2982       N  0.48015328  0.08116891  0.77895184    -0.37300
C2983       C  0.86634685  0.42544241  0.80570993    -0.03900
C2984       C  0.84297635  0.39374664  0.80356739    -0.01100
C2985       C  0.83890621  0.37252957  0.82102719     0.03900
C2986       C  0.85543186  0.38322729  0.84181434    -0.03900
C2987       C  0.87627293  0.41513605  0.84477854    -0.01000
C2988       C  0.88452002  0.43517567  0.82598417     0.03900
C2989       C  0.82252486  0.38285318  0.78381799     0.38600
C2990       C  0.88854960  0.42759860  0.86733005     0.38600
C2991       C  0.91192028  0.46574762  0.82756476     0.37000
C2992       C  0.81646557  0.33989922  0.81821106     0.37000
N2993       N  0.93379792  0.49010348  0.82873420    -0.37800
N2994       N  0.79859750  0.31382334  0.81610785    -0.37800
N2995       N  0.89815892  0.43760602  0.88533871    -0.37300
N2996       N  0.80626752  0.37396149  0.76801848    -0.37300
C2997       C  0.92388199  0.08691815  0.69225949    -0.03900
C2998       C  0.92253800  0.11408297  0.68881713    -0.01100
C2999       C  0.94336720  0.13695242  0.67352852     0.03900
C3000       C  0.96225044  0.13079462  0.65904578    -0.03900
C3001       C  0.95913108  0.10135594  0.65976478    -0.01000
C3002       C  0.94333266  0.08136038  0.67791022     0.03900
C3003       C  0.89927631  0.11813202  0.70042427     0.38600
C3004       C  0.46699348  0.08923762  0.63995767     0.38600
C3005       C  0.94734181  0.05508047  0.68155499     0.37000
C3006       C  0.94436669  0.16624155  0.67196985     0.37000
N3007       N  0.45049195  0.03408000  0.68412003    -0.37800
N3008       N  0.94515376  0.18960080  0.67060510    -0.37800
N3009       N  0.47145173  0.07819942  0.62408842    -0.37300
N3010       N  0.88064487  0.12130742  0.70963972    -0.37300
C3011       C  0.86361722  0.43350703  0.68662319    -0.03900
C3012       C  0.83261539  0.41172209  0.68106105    -0.01100
C3013       C  0.82593523  0.38859731  0.66460934     0.03900
C3014       C  0.85036054  0.38758295  0.65322049    -0.03900
C3015       C  0.88129578  0.41107636  0.65740910    -0.01000
C3016       C  0.88796198  0.43336143  0.67461873     0.03900
C3017       C  0.80758739  0.41288165  0.69258756     0.38600
C3018       C  0.90620311  0.41277535  0.64369408     0.38600
C3019       C  0.91990066  0.45537718  0.68051825     0.37000
C3020       C  0.79388930  0.36504269  0.66020662     0.37000
N3021       N  0.94552592  0.47243242  0.68525722    -0.37800
N3022       N  0.76836293  0.34623552  0.65673097    -0.37800
N3023       N  0.92613609  0.41435424  0.63269658    -0.37300
N3024       N  0.78767757  0.41400019  0.70167848    -0.37300
C3025       C  0.96316927  0.18008052  0.58654478    -0.03900
C3026       C  0.95469816  0.20289762  0.58754319    -0.01100
C3027       C  0.93208345  0.20162112  0.57233916     0.03900
C3028       C  0.91852648  0.17807193  0.55535427    -0.03900
C3029       C  0.92681602  0.15500333  0.55473412    -0.01000
C3030       C  0.94752142  0.15507645  0.57107381     0.03900
C3031       C  0.96655532  0.22559926  0.60592865     0.38600
C3032       C  0.91374469  0.13058169  0.53761398     0.38600
C3033       C  0.94977153  0.12755395  0.57366238     0.37000
C3034       C  0.92083334  0.22289383  0.57568244     0.37000
N3035       N  0.45141236  0.10561391  0.57546028    -0.37800
N3036       N  0.91159680  0.23958627  0.57860713    -0.37800
N3037       N  0.90337271  0.11087835  0.52413888    -0.37300
N3038       N  0.97536201  0.24337288  0.62081012    -0.37300
C3039       C  0.83143376  0.08470408  0.45084502    -0.03900
C3040       C  0.80567781  0.06674886  0.43647939    -0.01100
C3041       C  0.80597546  0.04534858  0.42083918     0.03900
C3042       C  0.83096939  0.03974291  0.42061900    -0.03900
C3043       C  0.85647940  0.05734937  0.43556593    -0.01000
C3044       C  0.85684576  0.07995645  0.45028522     0.03900
C3045       C  0.77902183  0.07083014  0.43741057     0.38600
C3046       C  0.88373220  0.05429896  0.43449959     0.38600
C3047       C  0.88468886  0.10042047  0.46321288     0.37000
C3048       C  0.78261589  0.03261746  0.40298743     0.37000
N3049       N  0.90715717  0.11713224  0.47309258    -0.37800
N3050       N  0.76469211  0.52362689  0.38853275    -0.37800
N3051       N  0.90584259  0.05251712  0.43358353    -0.37300
N3052       N  0.75773085  0.07400825  0.43824542    -0.37300
C3053       C  0.74764043  0.08315872  0.55044725    -0.03900
C3054       C  0.71706823  0.07816392  0.55213643    -0.01100
C3055       C  0.69520530  0.05547503  0.56704334     0.03900
C3056       C  0.70366478  0.03827395  0.58129044    -0.03900
C3057       C  0.73426093  0.04402482  0.58034741    -0.01000
C3058       C  0.75548303  0.06482942  0.56424661     0.03900
C3059       C  0.70772688  0.09663264  0.53910100     0.38600
C3060       C  0.74553260  0.03187064  0.59790750     0.38600
C3061       C  0.78590787  0.06796704  0.56300518     0.37000
C3062       C  0.66427329  0.05103432  0.56858283     0.37000
N3063       N  0.80999491  0.07011819  0.56198328    -0.37800
N3064       N  0.63975243  0.54745984  0.56959206    -0.37800
N3065       N  0.75582993  0.02372604  0.61208767    -0.37300
N3066       N  0.70007574  0.11150156  0.52912632    -0.37300
C3067       C  0.92053712  0.25442871  0.44903843    -0.03900
C3068       C  0.93680643  0.24527767  0.43429236    -0.01100
C3069       C  0.95845077  0.26640379  0.41851000     0.03900
C3070       C  0.96532269  0.29740680  0.41810498    -0.03900
C3071       C  0.94875570  0.30641395  0.43275968    -0.01000
C3072       C  0.92637641  0.28498994  0.44797484     0.03900
C3073       C  0.93077062  0.21380585  0.43497188     0.38600
C3074       C  0.95321768  0.33724633  0.43122233     0.38600
C3075       C  0.90722912  0.29363580  0.46087705     0.37000
C3076       C  0.97086742  0.25512832  0.40108276     0.37000
N3077       N  0.89158267  0.30054193  0.47064996    -0.37800
N3078       N  0.97971964  0.24531691  0.38697947    -0.37800
N3079       N  0.45567868  0.36114340  0.42943522    -0.37300
N3080       N  0.92591546  0.18869985  0.43548226    -0.37300
C3081       C  0.75233034  0.17592755  0.44909511    -0.03900
C3082       C  0.72159234  0.15085988  0.44907062    -0.01100
C3083       C  0.69983299  0.15020737  0.43353300     0.03900
C3084       C  0.70806209  0.17554980  0.41890817    -0.03900
C3085       C  0.73846964  0.20130440  0.41968685    -0.01000
C3086       C  0.76072378  0.20126961  0.43449814     0.03900
C3087       C  0.71287074  0.12463038  0.46392696     0.38600
C3088       C  0.74754945  0.22683141  0.40410778     0.38600
C3089       C  0.79239558  0.22700944  0.43439134     0.37000
C3090       C  0.66981209  0.12220471  0.43124143     0.37000
N3091       N  0.81769587  0.24745701  0.43418805    -0.37800
N3092       N  0.64614120  0.09959925  0.42929841    -0.37800
N3093       N  0.75522820  0.24732279  0.39171337    -0.37300
N3094       N  0.70596562  0.10373144  0.47575280    -0.37300
C3095       C  0.82705447  0.25036885  0.55518415    -0.03900
C3096       C  0.84699132  0.28264510  0.55327585    -0.01100
C3097       C  0.84630327  0.30276054  0.56977427     0.03900
C3098       C  0.82431426  0.29118291  0.58756541    -0.03900
C3099       C  0.80490648  0.25895166  0.58996897    -0.01000
C3100       C  0.80602485  0.23859743  0.57375992     0.03900
C3101       C  0.86870149  0.29556233  0.53451719     0.38600
C3102       C  0.78575893  0.24658805  0.61016333     0.38600
C3103       C  0.78679685  0.20548624  0.57713053     0.37000
C3104       C  0.87090564  0.33489469  0.56997663     0.37000
N3105       N  0.77149874  0.17909934  0.57983761    -0.37800
N3106       N  0.89141393  0.36011378  0.57029489    -0.37800
N3107       N  0.77095388  0.23643039  0.62645089    -0.37300
N3108       N  0.88635595  0.30641933  0.51980136    -0.37300
C3109       C  0.74861089  0.07995465  0.94424368    -0.03900
C3110       C  0.75781701  0.07772783  0.92182863    -0.01100
C3111       C  0.73672751  0.05456509  0.90659379     0.03900
C3112       C  0.70593452  0.03344159  0.91348334    -0.03900
C3113       C  0.69669398  0.03603443  0.93582831    -0.01000
C3114       C  0.71824196  0.05838362  0.95135027     0.03900
C3115       C  0.78894171  0.09977188  0.91426375     0.38600
C3116       C  0.66453580  0.01737491  0.94247425     0.38600
C3117       C  0.70953997  0.05802282  0.97500132     0.37000
C3118       C  0.74666065  0.05289381  0.88357943     0.37000
N3119       N  0.70251218  0.05680196  0.99397459    -0.37800
N3120       N  0.75460167  0.05152292  0.86524495    -0.37800
N3121       N  0.63888305  0.00322602  0.94802725    -0.37300
N3122       N  0.81376736  0.11741503  0.90828368    -0.37300
C3123       C  0.74602814  0.17112432  0.04741160    -0.03900
C3124       C  0.75509909  0.19369141  0.06490652    -0.01100
C3125       C  0.73315502  0.19206277  0.08077946     0.03900
C3126       C  0.70201623  0.16793675  0.07924256    -0.03900
C3127       C  0.69310200  0.14508771  0.06204933    -0.01000
C3128       C  0.71464444  0.14752446  0.04554894     0.03900
C3129       C  0.78713554  0.21846490  0.06676974     0.38600
C3130       C  0.66278054  0.11725376  0.06279182     0.38600
C3131       C  0.70459854  0.12468839  0.02736511     0.37000
C3132       C  0.74332123  0.21330194  0.10006472     0.37000
N3133       N  0.69614926  0.10660844  0.01272730    -0.37800
N3134       N  0.75184773  0.22993998  0.11564591    -0.37800
N3135       N  0.63894757  0.09466987  0.06357648    -0.37300
N3136       N  0.81268710  0.23820167  0.06829912    -0.37300
C3137       C  0.91712808  0.17453930  0.94615939    -0.03900
C3138       C  0.93227785  0.19982607  0.93082277    -0.01100
C3139       C  0.95514440  0.20181736  0.91560510     0.03900
C3140       C  0.96387315  0.17921757  0.91587102    -0.03900
C3141       C  0.94828143  0.15363298  0.93063212    -0.01000
C3142       C  0.92531222  0.15136487  0.94575344     0.03900
C3143       C  0.92314019  0.22297378  0.92943033     0.38600
C3144       C  0.95358944  0.12786201  0.92865150     0.38600
C3145       C  0.90973615  0.12452931  0.96043953     0.37000
C3146       C  0.96774169  0.22577888  0.89838924     0.37000
N3147       N  0.89713215  0.10288891  0.97188624    -0.37800
N3148       N  0.47689414  0.24459136  0.88452436    -0.37800
N3149       N  0.95699693  0.10684219  0.92672542    -0.37300
N3150       N  0.91595257  0.24148162  0.92822982    -0.37300
C3151       C  0.82663243  0.03861243  0.08185029    -0.03900
C3152       C  0.85222313  0.05682551  0.06749471    -0.01100
C3153       C  0.85117834  0.07734696  0.05159946     0.03900
C3154       C  0.82499874  0.08085821  0.05039506    -0.03900
C3155       C  0.79977131  0.06344950  0.06525083    -0.01000
C3156       C  0.80056773  0.04237677  0.08085739     0.03900
C3157       C  0.88092870  0.05677472  0.07064588     0.38600
C3158       C  0.77325874  0.06776515  0.06493824     0.38600
C3159       C  0.77540055  0.02618771  0.09688066     0.37000
C3160       C  0.87824727  0.09693911  0.03786681     0.37000
N3161       N  0.75519693  0.01385074  0.10968590    -0.37800
N3162       N  0.89983627  0.11284475  0.02702720    -0.37800
N3163       N  0.75214744  0.07127062  0.06490204    -0.37300
N3164       N  0.90396363  0.55692912  0.07329599    -0.37300
C3165       C  0.91804616  0.24615750  0.05329094    -0.03900
C3166       C  0.92894160  0.27818381  0.05293537    -0.01100
C3167       C  0.95255687  0.29855393  0.06820883     0.03900
C3168       C  0.96604099  0.28733497  0.08390959    -0.03900
C3169       C  0.95493311  0.25522412  0.08436730    -0.01000
C3170       C  0.93139069  0.23483395  0.06899101     0.03900
C3171       C  0.91398827  0.28993223  0.03819614     0.38600
C3172       C  0.96586514  0.24261889  0.10180445     0.38600
C3173       C  0.92064742  0.20202280  0.06956035     0.37000
C3174       C  0.96065877  0.33065056  0.06923132     0.37000
N3175       N  0.91204421  0.17585341  0.07006477    -0.37800
N3176       N  0.96622335  0.35598350  0.07008175    -0.37800
N3177       N  0.97369484  0.23177402  0.11577246    -0.37300
N3178       N  0.90183963  0.29929958  0.02668007    -0.37300
C3179       C  0.83175441  0.25317828  0.94681560    -0.03900
C3180       C  0.80799786  0.24581454  0.93033659    -0.01100
C3181       C  0.80961640  0.26873060  0.91546096     0.03900
C3182       C  0.83474886  0.29936312  0.91675672    -0.03900
C3183       C  0.85887765  0.30666839  0.93252926    -0.01000
C3184       C  0.85737708  0.28403747  0.94757103     0.03900
C3185       C  0.78307229  0.21412034  0.92702002     0.38600
C3186       C  0.88667108  0.33705969  0.93201428     0.38600
C3187       C  0.88337329  0.29280700  0.96292226     0.37000
C3188       C  0.78698451  0.25988938  0.89717726     0.37000
N3189       N  0.90462454  0.30010733  0.97467516    -0.37800
N3190       N  0.76907702  0.25220219  0.88243987    -0.37800
N3191       N  0.90900803  0.36109708  0.93140130    -0.37300
N3192       N  0.76330569  0.18886178  0.92413743    -0.37300
Zn3193     Zn  0.82844184  0.66642902  0.03195065     1.49700
Zn3194     Zn  0.79254206  0.66576776  0.98569570     1.49400
Zn3195     Zn  0.86696457  0.70555966  0.98937042     1.49100
Zn3196     Zn  0.83157602  0.63118018  0.98722532     1.49500
O3197       O  0.82966464  0.66706202  0.99845331    -1.82700
O3198       O  0.79290831  0.67093423  0.04283196    -0.73400
O3199       O  0.80493768  0.70393657  0.96626431    -0.73200
O3200       O  0.89399163  0.73004385  0.01643726    -0.72700
O3201       O  0.76602020  0.66692453  0.01132559    -0.73400
O3202       O  0.86852545  0.70078119  0.04610831    -0.73000
O3203       O  0.85579928  0.73197043  0.97044306    -0.73600
O3204       O  0.86999522  0.64544374  0.96769286    -0.72900
O3205       O  0.76657239  0.62654424  0.96622540    -0.73700
O3206       O  0.89381670  0.69650216  0.96937828    -0.73100
O3207       O  0.79482956  0.60382422  0.96680608    -0.73600
O3208       O  0.83086858  0.60460758  0.01388844    -0.73500
O3209       O  0.82244111  0.62622051  0.04424032    -0.73300
C3210       C  0.76969190  0.66986939  0.03296798     0.78500
C3211       C  0.83070690  0.72839627  0.96204475     0.79000
C3212       C  0.89207809  0.72448183  0.03780628     0.78000
C3213       C  0.89234974  0.67195413  0.96198453     0.78400
C3214       C  0.77104722  0.60464389  0.96015832     0.79500
C3215       C  0.82568439  0.60488724  0.03526278     0.78500
Zn3216     Zn  0.83415365  0.67092204  0.46731556     1.49700
Zn3217     Zn  0.86967087  0.71047627  0.51174799     1.49400
Zn3218     Zn  0.79557684  0.66945347  0.51132829     1.49100
Zn3219     Zn  0.83496097  0.63611015  0.51232808     1.49500
O3220       O  0.83376655  0.67184579  0.50069246    -1.82700
O3221       O  0.87403029  0.70632581  0.45509662    -0.73400
O3222       O  0.85584307  0.73451979  0.53154842    -0.73200
O3223       O  0.77125924  0.67170495  0.48511063    -0.72700
O3224       O  0.89632429  0.73683259  0.48536361    -0.73400
O3225       O  0.79910714  0.67522596  0.45442555    -0.73000
O3226       O  0.80464548  0.70474454  0.53203332    -0.73600
O3227       O  0.79628911  0.60814387  0.53013434    -0.72900
O3228       O  0.89679391  0.70131953  0.53184786    -0.73700
O3229       O  0.76845948  0.63076777  0.52927248    -0.73100
O3230       O  0.87179602  0.65009620  0.53334976    -0.73600
O3231       O  0.83679672  0.60976795  0.48674118    -0.73500
O3232       O  0.83001455  0.63091783  0.45557167    -0.73300
C3233       C  0.89570846  0.73116672  0.46400160     0.78500
C3234       C  0.82935027  0.72884292  0.53851168     0.79000
C3235       C  0.77576369  0.67457574  0.46364362     0.78000
C3236       C  0.77196558  0.60857619  0.53568820     0.78400
C3237       C  0.89445661  0.67642585  0.53925810     0.79500
C3238       C  0.83282035  0.60975054  0.46520954     0.78500
N3239       N  0.88382378  0.00322984  0.78358113    -0.35200
N3240       N  0.89587670  0.55253051  0.75138086    -0.55800
N3241       N  0.88412824  0.00852033  0.71515116    -0.35200
N3242       N  0.86974226  0.95934188  0.74724019    -0.55800
C3243       C  0.88596471  0.52545273  0.79798372     0.28400
C3244       C  0.86987194  0.97603693  0.79502878     0.28400
C3245       C  0.88624130  0.53260808  0.70363396     0.28400
C3246       C  0.87061314  0.98360093  0.70114860     0.28400
C3247       C  0.90628936  0.56965099  0.77076634     0.37000
C3248       C  0.90927301  0.57243942  0.73375917     0.37000
C3249       C  0.87348711  0.94395479  0.76465281     0.37000
C3250       C  0.87308083  0.94685525  0.72776717     0.37000
C3251       C  0.87294435  0.51181129  0.81878599    -0.20500
C3252       C  0.86165344  0.98072484  0.81661219    -0.20500
C3253       C  0.87306636  0.52264344  0.68212634    -0.20500
C3254       C  0.86314610  0.99166977  0.68046582    -0.20500
C3255       C  0.92411674  0.60075063  0.76522940    -0.21600
C3256       C  0.92726218  0.60231317  0.74198288    -0.21500
C3257       C  0.87943624  0.92172979  0.75621563    -0.21600
C3258       C  0.87859548  0.92321886  0.73274269    -0.21500
C3259       C  0.90229498  0.55765832  0.79334298    -0.16900
C3260       C  0.86934003  0.94867151  0.78789136    -0.16900
C3261       C  0.86913890  0.95534618  0.70564952    -0.16900
C3262       C  0.90497267  0.56377431  0.71036536    -0.16900
H3263       H  0.87219699  0.52249852  0.83456607     0.16000
H3264       H  0.85086559  0.96390494  0.83009168     0.16000
H3265       H  0.87226591  0.53672013  0.66848940     0.16000
H3266       H  0.85329136  0.97718433  0.66544437     0.16000
H3267       H  0.93519856  0.62040526  0.77671911     0.14300
H3268       H  0.94139476  0.62324216  0.73246223     0.14300
H3269       H  0.88346145  0.90592912  0.76604905     0.14300
H3270       H  0.88186075  0.90889542  0.72059068     0.14300
H3271       H  0.89607730  0.00758568  0.76841169     0.27600
H3272       H  0.89648816  0.01041980  0.72995504     0.27600
N3273       N  0.59611257  0.59495113  0.78526374    -0.35200
N3274       N  0.57800906  0.62760776  0.75338915    -0.55800
N3275       N  0.59720852  0.60325792  0.71692705    -0.35200
N3276       N  0.61650365  0.57191870  0.74881138    -0.55800
C3277       C  0.59315151  0.61490742  0.79904604     0.28400
C3278       C  0.61454809  0.58661251  0.79621432     0.28400
C3279       C  0.59517506  0.62607973  0.70642972     0.28400
C3280       C  0.61504086  0.59636003  0.70376380     0.28400
C3281       C  0.56389599  0.62901631  0.77263770     0.37000
C3282       C  0.56388605  0.63280270  0.73562897     0.37000
C3283       C  0.61412448  0.55281111  0.76587253     0.37000
C3284       C  0.61412496  0.55697009  0.72904173     0.37000
C3285       C  0.61028213  0.61989954  0.81887303    -0.20500
C3286       C  0.62436130  0.60248605  0.81689138    -0.20500
C3287       C  0.61282049  0.63449884  0.68662839    -0.20500
C3288       C  0.62512845  0.61543654  0.68482533    -0.20500
C3289       C  0.54133837  0.63603953  0.76717557    -0.21600
C3290       C  0.54054604  0.63740985  0.74369797    -0.21500
C3291       C  0.60957801  0.52523402  0.75691211    -0.21600
C3292       C  0.60985433  0.52807969  0.73342329    -0.21500
C3293       C  0.57246833  0.62559734  0.79502059    -0.16900
C3294       C  0.61861115  0.56183157  0.78913616    -0.16900
C3295       C  0.61880034  0.57070976  0.70737919    -0.16900
C3296       C  0.57366882  0.63530480  0.71257125    -0.16900
H3297       H  0.61189134  0.63407154  0.83341910     0.16000
H3298       H  0.63881067  0.60048787  0.82973411     0.16000
H3299       H  0.61506311  0.65134298  0.67414205     0.16000
H3300       H  0.63889389  0.61487198  0.67078618     0.16000
H3301       H  0.52689491  0.63968043  0.77887496     0.14300
H3302       H  0.52500187  0.64194129  0.73385217     0.14300
H3303       H  0.60679563  0.50549215  0.76632200     0.14300
H3304       H  0.60695688  0.51101819  0.72084687     0.14300
H3305       H  0.58240512  0.58411099  0.77090197     0.27600
H3306       H  0.58320623  0.58969981  0.73027025     0.27600
N3307       N  0.00048674  0.85986984  0.78417908    -0.35200
N3308       N  0.54842918  0.89607853  0.74993166    -0.55800
N3309       N  0.00195917  0.88247913  0.71588871    -0.35200
N3310       N  0.95440035  0.85005427  0.74971513    -0.55800
C3311       C  0.52594212  0.87439341  0.79779525     0.28400
C3312       C  0.97534280  0.85119615  0.79762538     0.28400
C3313       C  0.52730121  0.90608159  0.70633358     0.28400
C3314       C  0.97687125  0.88126995  0.70609311     0.28400
C3315       C  0.56569538  0.89448054  0.76702642     0.37000
C3316       C  0.56549042  0.90274494  0.73062474     0.37000
C3317       C  0.93601160  0.83225298  0.76678569     0.37000
C3318       C  0.93741507  0.84010422  0.73031649     0.37000
C3319       C  0.51662324  0.87215749  0.82043981    -0.20500
C3320       C  0.98470367  0.85804414  0.82027022    -0.20500
C3321       C  0.51832595  0.92053249  0.69046681    -0.20500
C3322       C  0.98659475  0.90483993  0.69023184    -0.20500
C3323       C  0.59391253  0.90019934  0.75848124    -0.21600
C3324       C  0.59300585  0.90363616  0.73524857    -0.21500
C3325       C  0.90719304  0.81063263  0.75822939    -0.21600
C3326       C  0.90855867  0.81466692  0.73491714    -0.21500
C3327       C  0.55729088  0.89145541  0.79035677    -0.16900
C3328       C  0.94420721  0.83825829  0.79005779    -0.16900
C3329       C  0.94569843  0.85768601  0.71001970    -0.16900
C3330       C  0.55806780  0.91245353  0.71008519    -0.16900
H3331       H  0.53118083  0.88093803  0.83552066     0.16000
H3332       H  0.97022439  0.85364180  0.83514043     0.16000
H3333       H  0.53326587  0.93991726  0.67969866     0.16000
H3334       H  0.97213601  0.90974528  0.67935694     0.16000
H3335       H  0.61346127  0.90207247  0.76763549     0.14300
H3336       H  0.61152841  0.90852736  0.72342860     0.14300
H3337       H  0.88708281  0.79402751  0.76762645     0.14300
H3338       H  0.88953422  0.80211385  0.72303817     0.14300
H3339       H  0.00052701  0.85617921  0.76668784     0.27600
H3340       H  0.00154152  0.86549096  0.72629518     0.27600
C3341       C  0.51535891  0.69419439  0.60507494     0.03700
C3342       C  0.98245535  0.67824348  0.60509571     0.03600
C3343       C  0.96633868  0.65844886  0.62319451    -0.16900
C3344       C  0.98173043  0.65343459  0.64107837     0.03700
C3345       C  0.51454504  0.66888160  0.64109138     0.03600
C3346       C  0.53087664  0.68930568  0.62321366    -0.16900
H3347       H  0.55597100  0.70103211  0.62315956     0.05700
H3348       H  0.94119876  0.64611931  0.62307419     0.05700
C3349       C  0.68230195  0.51811286  0.59961758     0.03700
C3350       C  0.67074048  0.98566240  0.60068042     0.03600
C3351       C  0.65313924  0.96914879  0.61968920    -0.16900
C3352       C  0.64491854  0.98316492  0.63693576     0.03700
C3353       C  0.65544751  0.51538164  0.63541916     0.03600
C3354       C  0.67431112  0.53227612  0.61699726    -0.16900
H3355       H  0.68273187  0.55684116  0.61607634     0.05700
H3356       H  0.64501608  0.94465769  0.62078277     0.05700
C3357       C  0.83947051  0.82170773  0.89827383     0.03700
C3358       C  0.82389429  0.83864967  0.89736342     0.03600
C3359       C  0.83009476  0.85877006  0.87881885    -0.16900
C3360       C  0.85007472  0.86131499  0.86087258     0.03700
C3361       C  0.86465524  0.84330488  0.86140268     0.03600
C3362       C  0.85989842  0.82483257  0.88065022    -0.16900
H3363       H  0.87164540  0.81174141  0.88165797     0.05700
H3364       H  0.81867042  0.87217755  0.87806735     0.05700
C3365       C  0.82601220  0.81265488  0.60562692     0.03700
C3366       C  0.81625968  0.83418828  0.60184248     0.03600
C3367       C  0.82485332  0.85824612  0.61761809    -0.16900
C3368       C  0.84290713  0.86149842  0.63702637     0.03700
C3369       C  0.85261987  0.83973172  0.64093473     0.03600
C3370       C  0.84263707  0.81486656  0.62553380    -0.16900
H3371       H  0.84979184  0.79804757  0.62820823     0.05700
H3372       H  0.81719506  0.87465264  0.61480407     0.05700
C3373       C  0.68293021  0.51116945  0.89646112     0.03700
C3374       C  0.66920665  0.97856163  0.89756877     0.03600
C3375       C  0.64982083  0.96003755  0.87965834    -0.16900
C3376       C  0.64232392  0.97255356  0.86112997     0.03700
C3377       C  0.65458479  0.50495166  0.86064196     0.03600
C3378       C  0.67496647  0.52373546  0.87800833    -0.16900
H3379       H  0.68466153  0.54853274  0.87719901     0.05700
H3380       H  0.63953682  0.93516088  0.88057126     0.05700
C3381       C  0.98384984  0.67787437  0.89758634     0.03700
C3382       C  0.51468136  0.68547585  0.90137726     0.03600
C3383       C  0.52832422  0.67435058  0.88614412    -0.16900
C3384       C  0.51227470  0.65608105  0.86699745     0.03700
C3385       C  0.98091950  0.64853871  0.86299625     0.03600
C3386       C  0.96854979  0.66183712  0.87764477    -0.16900
H3387       H  0.94561114  0.65809736  0.87441900     0.05700
H3388       H  0.55216253  0.68046970  0.88908004     0.05700
Zn3389     Zn  0.70633989  0.83720286  0.48789579     1.49700
Zn3390     Zn  0.66504101  0.86948774  0.48778518     1.49400
Zn3391     Zn  0.63175425  0.79513867  0.49027338     1.49100
Zn3392     Zn  0.66940432  0.83627371  0.53294028     1.49500
O3393       O  0.66825093  0.83463524  0.49959031    -1.82700
O3394       O  0.73197688  0.87652056  0.46902124    -0.73400
O3395       O  0.62532690  0.85334164  0.46936802    -0.73200
O3396       O  0.64452087  0.76825185  0.47307586    -0.72700
O3397       O  0.70085338  0.89589746  0.46675375    -0.73400
O3398       O  0.69488797  0.80040483  0.46721732    -0.73000
O3399       O  0.60498920  0.80231622  0.46845728    -0.73600
O3400       O  0.63011135  0.80159471  0.54693274    -0.72900
O3401       O  0.66721851  0.89836238  0.51341711    -0.73700
O3402       O  0.60385179  0.77245479  0.51729944    -0.73100
O3403       O  0.67309702  0.87604208  0.54404190    -0.73600
O3404       O  0.70576806  0.83333302  0.54486510    -0.73500
O3405       O  0.73228224  0.83490857  0.51399397    -0.73300
C3406       C  0.72589169  0.89668323  0.46143575     0.78500
C3407       C  0.60463250  0.82645045  0.46252358     0.79000
C3408       C  0.67008575  0.77456636  0.46378875     0.78000
C3409       C  0.60603857  0.77810570  0.53873666     0.78400
C3410       C  0.67147222  0.89817352  0.53493139     0.79500
C3411       C  0.72859957  0.83287576  0.53565486     0.78500
Zn3412     Zn  0.70972952  0.86956235  0.98881145     1.49700
Zn3413     Zn  0.66981965  0.79542426  0.98803860     1.49400
Zn3414     Zn  0.67257634  0.83356092  0.03379450     1.49100
Zn3415     Zn  0.63512055  0.83474209  0.99076838     1.49500
O3416       O  0.67184137  0.83316163  0.00030612    -1.82700
O3417       O  0.73570294  0.85708384  0.96963472    -0.73400
O3418       O  0.67094495  0.76937060  0.01408396    -0.73200
O3419       O  0.71116921  0.87204348  0.04571076    -0.72700
O3420       O  0.70664868  0.80588661  0.96713297    -0.73400
O3421       O  0.73627146  0.89745717  0.01467195    -0.73000
O3422       O  0.67257982  0.79589225  0.04495664    -0.73600
O3423       O  0.60841561  0.83327237  0.01752982    -0.72900
O3424       O  0.62979847  0.76964669  0.96976836    -0.73700
O3425       O  0.63429673  0.83176352  0.04776754    -0.73100
O3426       O  0.60749521  0.79825162  0.97070693    -0.73600
O3427       O  0.64795808  0.87323275  0.97237696    -0.73500
O3428       O  0.69869442  0.89581345  0.96937398    -0.73300
C3429       C  0.73110023  0.83121735  0.96202151     0.78500
C3430       C  0.67191695  0.77251279  0.03579149     0.79000
C3431       C  0.73391701  0.89552324  0.03636867     0.78000
C3432       C  0.61084363  0.83162759  0.03911588     0.78400
C3433       C  0.60782827  0.77423088  0.96412904     0.79500
C3434       C  0.67350679  0.89512253  0.96475642     0.78500
N3435       N  0.50258899  0.61111891  0.28497433    -0.35200
N3436       N  0.54443578  0.62058306  0.24853106    -0.55800
N3437       N  0.49332346  0.60132469  0.21609703    -0.35200
N3438       N  0.95225843  0.59518654  0.25309698    -0.55800
C3439       C  0.53015219  0.62759171  0.29576728     0.28400
C3440       C  0.98109975  0.61128069  0.29868610     0.28400
C3441       C  0.51797958  0.61252489  0.20177205     0.28400
C3442       C  0.96856224  0.59735307  0.20372484     0.28400
C3443       C  0.56176701  0.62123314  0.26648749     0.37000
C3444       C  0.55691713  0.61574124  0.22969619     0.37000
C3445       C  0.93598814  0.58806523  0.27281052     0.37000
C3446       C  0.93135977  0.58648612  0.23590344     0.37000
C3447       C  0.52618199  0.63917109  0.31630935    -0.20500
C3448       C  0.99486133  0.62818112  0.31836349    -0.20500
C3449       C  0.50879879  0.61585669  0.18017688    -0.20500
C3450       C  0.97766946  0.60483319  0.18107307    -0.20500
C3451       C  0.58533946  0.61668210  0.25907746    -0.21600
C3452       C  0.58228731  0.61325762  0.23567670    -0.21500
C3453       C  0.90487691  0.57607188  0.26818552    -0.21600
C3454       C  0.90212885  0.57632908  0.24490608    -0.21500
C3455       C  0.55747938  0.62809298  0.28915193    -0.16900
C3456       C  0.94911148  0.59358571  0.29493095    -0.16900
C3457       C  0.93796493  0.58643706  0.21226363    -0.16900
C3458       C  0.54776318  0.61713168  0.20708347    -0.16900
H3459       H  0.54367979  0.65263445  0.32905244     0.16000
H3460       H  0.98345704  0.63168151  0.33280227     0.16000
H3461       H  0.52269297  0.62417464  0.16487524     0.16000
H3462       H  0.96394012  0.60268930  0.16623954     0.16000
H3463       H  0.60305508  0.61649067  0.26946176     0.14300
H3464       H  0.59716135  0.60991163  0.22416630     0.14300
H3465       H  0.88613181  0.56865809  0.28021564     0.14300
H3466       H  0.88070083  0.56892805  0.23572788     0.14300
H3467       H  0.49769272  0.59612384  0.27119305     0.27600
H3468       H  0.49266365  0.59368114  0.23264170     0.27600
N3469       N  0.89152906  0.89495359  0.28481298    -0.35200
N3470       N  0.91670893  0.87009561  0.25170270    -0.55800
N3471       N  0.90652666  0.90243224  0.21555563    -0.35200
N3472       N  0.88284673  0.92907855  0.24811332    -0.55800
C3473       C  0.90723792  0.88595525  0.29865443     0.28400
C3474       C  0.88751129  0.91604045  0.29652027     0.28400
C3475       C  0.92565885  0.89408211  0.20567068     0.28400
C3476       C  0.90795581  0.92588706  0.20325945     0.28400
C3477       C  0.91337341  0.85282625  0.27025875     0.37000
C3478       C  0.91643009  0.85369716  0.23320888     0.37000
C3479       C  0.86500705  0.93075508  0.26484589     0.37000
C3480       C  0.87323017  0.93485997  0.22801321     0.37000
C3481       C  0.91228411  0.90083907  0.31967746    -0.20500
C3482       C  0.90057038  0.92028958  0.31813030    -0.20500
C3483       C  0.94029029  0.91323431  0.18719865    -0.20500
C3484       C  0.92857853  0.93279503  0.18535392    -0.20500
C3485       C  0.91075870  0.82510416  0.26343218    -0.21600
C3486       C  0.91077513  0.82493170  0.23990431    -0.21500
C3487       C  0.84362850  0.93721778  0.25530239    -0.21600
C3488       C  0.84881828  0.93981545  0.23203506    -0.21500
C3489       C  0.91639073  0.86410798  0.29288900    -0.16900
C3490       C  0.87016581  0.92951092  0.28867824    -0.16900
C3491       C  0.88810823  0.93805114  0.20658004    -0.16900
C3492       C  0.92649494  0.86696067  0.21133320    -0.16900
H3493       H  0.92320544  0.89806052  0.33471977     0.16000
H3494       H  0.90111316  0.93540297  0.33161339     0.16000
H3495       H  0.95638025  0.91208642  0.17548067     0.16000
H3496       H  0.93403516  0.94944983  0.17190153     0.16000
H3497       H  0.90960419  0.80692844  0.27382657     0.14300
H3498       H  0.90965911  0.80683117  0.22909268     0.14300
H3499       H  0.82658349  0.94047704  0.26422379     0.14300
H3500       H  0.83658195  0.94567295  0.21966368     0.14300
H3501       H  0.88177430  0.88536589  0.26895780     0.27600
H3502       H  0.88989965  0.88978225  0.22788166     0.27600
C3503       C  0.83412196  0.52108166  0.40162839     0.03700
C3504       C  0.81259887  0.98928274  0.39745693     0.03600
C3505       C  0.81477059  0.97570506  0.37689550    -0.16900
C3506       C  0.83908804  0.99160278  0.36112654     0.03700
C3507       C  0.86080999  0.52356175  0.36578884     0.03600
C3508       C  0.85755946  0.53741435  0.38566085    -0.16900
H3509       H  0.87360492  0.56183263  0.38864406     0.05700
H3510       H  0.79751968  0.95179380  0.37355490     0.05700
N3511       N  0.61775905  0.50271646  0.28452340    -0.35200
N3512       N  0.63763957  0.54861516  0.24912306    -0.55800
N3513       N  0.61038736  0.49921296  0.21630947    -0.35200
N3514       N  0.59136683  0.95337273  0.25163713    -0.55800
C3515       C  0.63999220  0.52878085  0.29476894     0.28400
C3516       C  0.61569888  0.97843858  0.29598881     0.28400
C3517       C  0.62843782  0.52367216  0.20297225     0.28400
C3518       C  0.60295833  0.97364226  0.20410249     0.28400
C3519       C  0.64137670  0.56638774  0.26757839     0.37000
C3520       C  0.63725704  0.56443327  0.23070736     0.37000
C3521       C  0.57678567  0.93865056  0.27103950     0.37000
C3522       C  0.57298954  0.93650288  0.23401932     0.37000
C3523       C  0.65306186  0.52119317  0.31260877    -0.20500
C3524       C  0.63839359  0.98924785  0.31287134    -0.20500
C3525       C  0.63346436  0.51340780  0.18220676    -0.20500
C3526       C  0.61702530  0.98168682  0.18288113    -0.20500
C3527       C  0.64357070  0.59383443  0.26093989    -0.21600
C3528       C  0.64104184  0.59263454  0.23747128    -0.21500
C3529       C  0.54851624  0.91261597  0.26558594    -0.21600
C3530       C  0.54671656  0.91103098  0.24204053    -0.21500
C3531       C  0.64534799  0.55861815  0.28991793    -0.16900
C3532       C  0.59081546  0.94764646  0.29304280    -0.16900
C3533       C  0.58062239  0.94361519  0.21081141    -0.16900
C3534       C  0.63620737  0.55433044  0.20797887    -0.16900
H3535       H  0.67075148  0.53700089  0.32443122     0.16000
H3536       H  0.64235796  0.97554976  0.32514479     0.16000
H3537       H  0.64620932  0.52735236  0.16769257     0.16000
H3538       H  0.61472599  0.96626770  0.16902735     0.16000
H3539       H  0.64783542  0.61316467  0.27173406     0.14300
H3540       H  0.64313915  0.61095144  0.22662608     0.14300
H3541       H  0.53130588  0.89618967  0.27720807     0.14300
H3542       H  0.52836144  0.89371250  0.23166899     0.14300
H3543       H  0.60159014  0.50165015  0.27272112     0.27600
H3544       H  0.59948233  0.49980995  0.23130593     0.27600
C3545       C  0.82637665  0.99091506  0.09693029     0.03700
C3546       C  0.83027724  0.52021829  0.10048546     0.03600
C3547       C  0.84284432  0.53551721  0.12120499    -0.16900
C3548       C  0.85509333  0.52410629  0.13756190     0.03700
C3549       C  0.85336832  0.99523543  0.13328511     0.03600
C3550       C  0.83898562  0.97931804  0.11280309    -0.16900
H3551       H  0.83626266  0.95680789  0.10955846     0.05700
H3552       H  0.84337298  0.55703116  0.12434036     0.05700
C3553       C  0.66877953  0.68569649  0.39872821     0.03700
C3554       C  0.68729552  0.67175912  0.39946607     0.03600
C3555       C  0.68549648  0.65215301  0.38155027    -0.16900
C3556       C  0.66509503  0.64534056  0.36326531     0.03700
C3557       C  0.64638746  0.65887428  0.36265888     0.03600
C3558       C  0.64837247  0.67879636  0.38025045    -0.16900
H3559       H  0.63388005  0.68906490  0.37952451     0.05700
H3560       H  0.69957681  0.64142073  0.38217369     0.05700
C3561       C  0.67994829  0.66334269  0.09780871     0.03700
C3562       C  0.66195911  0.67779159  0.09825490     0.03600
C3563       C  0.64049890  0.67077528  0.11595517    -0.16900
C3564       C  0.63722690  0.65024732  0.13329885     0.03700
C3565       C  0.65619952  0.63698622  0.13318662     0.03600
C3566       C  0.67709221  0.64340720  0.11544601    -0.16900
H3567       H  0.69106817  0.63254443  0.11524388     0.05700
H3568       H  0.62650073  0.68159394  0.11634891     0.05700
C3569       C  0.51813579  0.82994732  0.39865207     0.03700
C3570       C  0.98573454  0.81868409  0.39973659     0.03600
C3571       C  0.97167886  0.82687292  0.38248479    -0.16900
C3572       C  0.98837411  0.84523677  0.36372440     0.03700
C3573       C  0.52112063  0.85699937  0.36315547     0.03600
C3574       C  0.53512315  0.84905293  0.38044377    -0.16900
H3575       H  0.55998684  0.85851351  0.37993756     0.05700
H3576       H  0.94700566  0.81819887  0.38349497     0.05700
C3577       C  0.98552116  0.80783852  0.10321886     0.03700
C3578       C  0.51826684  0.82798535  0.10202742     0.03600
C3579       C  0.53323217  0.84991474  0.11960915    -0.16900
C3580       C  0.51691586  0.85239688  0.13827418     0.03700
C3581       C  0.98442043  0.83177116  0.13981503     0.03600
C3582       C  0.96951515  0.80948906  0.12244219    -0.16900
H3583       H  0.94470463  0.79380222  0.12342182     0.05700
H3584       H  0.55809143  0.86541701  0.11870704     0.05700
C3585       C  0.54217493  0.87988913  0.34608260    -0.03900
C3586       C  0.55926677  0.91130837  0.35225095    -0.01100
C3587       C  0.57423784  0.93382246  0.33523642     0.03900
C3588       C  0.57838846  0.92499103  0.31286200    -0.03900
C3589       C  0.56849122  0.89322071  0.30924630    -0.01000
C3590       C  0.54801548  0.87065220  0.32484590     0.03900
C3591       C  0.06002247  0.92067381  0.37602426     0.38600
C3592       C  0.58001112  0.88374153  0.28997362     0.38600
C3593       C  0.53373058  0.83804253  0.31943140     0.37000
C3594       C  0.58400999  0.96535954  0.34150655     0.37000
N3595       N  0.52213814  0.81195422  0.31520217    -0.37800
N3596       N  0.09172453  0.99024959  0.34785230    -0.37800
N3597       N  0.58928927  0.87612444  0.27468427    -0.37300
N3598       N  0.06099373  0.92789792  0.39498428    -0.42100
C3599       C  0.53456048  0.87681871  0.15612042    -0.03900
C3600       C  0.52764673  0.90042043  0.16024880    -0.01100
C3601       C  0.54106381  0.92067737  0.17907049     0.03900
C3602       C  0.56383349  0.91963327  0.19262916    -0.03900
C3603       C  0.57213116  0.89725738  0.18781333    -0.01000
C3604       C  0.55748143  0.87581688  0.16973591     0.03900
C3605       C  0.50768973  0.90472601  0.14460478     0.38600
C3606       C  0.59572368  0.89629977  0.20157899     0.38600
C3607       C  0.56572664  0.85243224  0.16545597     0.37000
C3608       C  0.53040187  0.94170956  0.18515579     0.37000
N3609       N  0.57236627  0.83380663  0.16211765    -0.37800
N3610       N  0.52129520  0.95790856  0.19034815    -0.37800
N3611       N  0.61452801  0.89558948  0.21262919    -0.37300
N3612       N  0.49207015  0.90849040  0.13202764    -0.37300
C3613       C  0.66224764  0.62258719  0.34552400    -0.03900
C3614       C  0.68440337  0.63113230  0.32794857    -0.01100
C3615       C  0.67997562  0.60977038  0.31036827     0.03900
C3616       C  0.65208639  0.58085753  0.30924488    -0.03900
C3617       C  0.62972277  0.57307128  0.32653403    -0.01000
C3618       C  0.63640793  0.59240703  0.34569751     0.03900
C3619       C  0.71181758  0.66167746  0.32812045     0.38600
C3620       C  0.59864578  0.54688954  0.32354456     0.38600
C3621       C  0.61808786  0.58024385  0.36622091     0.37000
C3622       C  0.70361982  0.61782501  0.29314734     0.37000
N3623       N  0.60400383  0.56983873  0.38276628    -0.37800
N3624       N  0.72235584  0.62425971  0.27928190    -0.37800
N3625       N  0.57356439  0.52663978  0.32076963    -0.37300
N3626       N  0.73373363  0.68605349  0.32827743    -0.37300
C3627       C  0.64248106  0.57588515  0.18852148    -0.03900
C3628       C  0.67086183  0.60429573  0.18702997    -0.01100
C3629       C  0.67526461  0.62502188  0.16928704     0.03900
C3630       C  0.65359658  0.61532386  0.15121324    -0.03900
C3631       C  0.62844020  0.58496244  0.15072221    -0.01000
C3632       C  0.62066423  0.56705727  0.17047833     0.03900
C3633       C  0.69564342  0.61185506  0.20328329     0.38600
C3634       C  0.61263226  0.57111422  0.12935533     0.38600
C3635       C  0.58983363  0.54030047  0.17223529     0.37000
C3636       C  0.70221435  0.65588423  0.16935470     0.37000
N3637       N  0.56490453  0.51938559  0.17335234    -0.37800
N3638       N  0.72368933  0.68055674  0.16945719    -0.37800
N3639       N  0.60079825  0.55953811  0.11218135    -0.37300
N3640       N  0.71541207  0.61766228  0.21620943    -0.37300
C3641       C  0.93526149  0.85800383  0.30994315    -0.03900
C3642       C  0.92453279  0.82860623  0.31973368    -0.01100
C3643       C  0.94371635  0.82403513  0.33509632     0.03900
C3644       C  0.97055773  0.84980769  0.34476697    -0.03900
C3645       C  0.97834311  0.87958237  0.33723773    -0.01000
C3646       C  0.96389393  0.88297335  0.31772492     0.03900
C3647       C  0.89334754  0.80343287  0.31514951     0.38600
C3648       C  0.99557364  0.90640038  0.35179419     0.38600
C3649       C  0.97759522  0.91289263  0.30668321     0.37000
C3650       C  0.93515011  0.79276514  0.34133627     0.37000
N3651       N  0.98845113  0.93671304  0.29786684    -0.37800
N3652       N  0.92837048  0.76788734  0.34645100    -0.37800
N3653       N  0.00766061  0.92836217  0.36317746    -0.37300
N3654       N  0.86852013  0.78315424  0.31153516    -0.37300
C3655       C  0.93803412  0.85262574  0.19381698    -0.03900
C3656       C  0.96082370  0.84458240  0.19914833    -0.01100
C3657       C  0.97264457  0.83366752  0.18183077     0.03900
C3658       C  0.96533906  0.83455414  0.15862481    -0.03900
C3659       C  0.94081582  0.83991094  0.15350577    -0.01000
C3660       C  0.92629154  0.84725909  0.17111772     0.03900
C3661       C  0.97195170  0.84651646  0.22234595     0.38600
C3662       C  0.93078921  0.83885000  0.13006886     0.38600
C3663       C  0.89906418  0.84926498  0.16573862     0.37000
C3664       C  0.49108365  0.81976751  0.18784077     0.37000
N3665       N  0.87747476  0.85103840  0.16142986    -0.37800
N3666       N  0.50522354  0.80830805  0.19296891    -0.37800
N3667       N  0.92227936  0.83790086  0.11150961    -0.37300
N3668       N  0.97985696  0.84644107  0.24096137    -0.37300
C3669       C  0.85819949  0.94364083  0.30609217    -0.03900
C3670       C  0.84288449  0.92763515  0.32624909    -0.01100
C3671       C  0.83886934  0.94366035  0.34472919     0.03900
C3672       C  0.84246908  0.97344875  0.34138235    -0.03900
C3673       C  0.85061145  0.98584898  0.31909039    -0.01000
C3674       C  0.86326104  0.97382670  0.30339678     0.03900
C3675       C  0.83177591  0.89486860  0.32830311     0.38600
C3676       C  0.84373081  0.50876310  0.31155787     0.38600
C3677       C  0.88503903  0.99432662  0.28663465     0.37000
C3678       C  0.83247018  0.92954859  0.36715994     0.37000
N3679       N  0.90373367  0.51100834  0.27407749    -0.37800
N3680       N  0.82728134  0.91814481  0.38501093    -0.37800
N3681       N  0.83725265  0.52644768  0.30498404    -0.37300
N3682       N  0.82275570  0.86870336  0.32995199    -0.37300
C3683       C  0.86383617  0.97942541  0.15031024    -0.03900
C3684       C  0.84254866  0.94928014  0.15850120    -0.01100
C3685       C  0.85139684  0.93539881  0.17562789     0.03900
C3686       C  0.88061535  0.95211141  0.18646507    -0.03900
C3687       C  0.90221820  0.98179858  0.17802218    -0.01000
C3688       C  0.89448860  0.99445543  0.15918980     0.03900
C3689       C  0.81076487  0.93271641  0.15036473     0.38600
C3690       C  0.93197156  0.99998280  0.18933713     0.38600
C3691       C  0.91821522  0.52276452  0.14890837     0.37000
C3692       C  0.83003566  0.90379023  0.18246600     0.37000
N3693       N  0.93717155  0.54536464  0.14058800    -0.37800
N3694       N  0.81309387  0.87859595  0.18795996    -0.37800
N3695       N  0.95561765  0.51453367  0.19855197    -0.37300
N3696       N  0.78528776  0.91902189  0.14416246    -0.37300
C3697       C  0.92899118  0.57843186  0.31514440    -0.03900
C3698       C  0.90902603  0.58817000  0.32356595    -0.01100
C3699       C  0.88694356  0.57054540  0.34033205     0.03900
C3700       C  0.88636223  0.54432619  0.35000039    -0.03900
C3701       C  0.90967857  0.53778276  0.34404430    -0.01000
C3702       C  0.92957426  0.55342572  0.32568221     0.03900
C3703       C  0.91038069  0.61553298  0.31423294     0.38600
C3704       C  0.91236811  0.01462732  0.35652259     0.38600
C3705       C  0.94847397  0.54179996  0.31626822     0.37000
C3706       C  0.86355761  0.57824878  0.34634295     0.37000
N3707       N  0.96246106  0.53160610  0.30821512    -0.37800
N3708       N  0.84488352  0.58436971  0.35108274    -0.37800
N3709       N  0.91482647  0.99620869  0.36659277    -0.37300
N3710       N  0.91147612  0.63730302  0.30666361    -0.37300
C3711       C  0.87007462  0.54341465  0.15859998    -0.03900
C3712       C  0.86386278  0.52924581  0.18012002    -0.01100
C3713       C  0.88684823  0.54205927  0.19711248     0.03900
C3714       C  0.91120920  0.57318635  0.19554800    -0.03900
C3715       C  0.91020510  0.59089043  0.17729073    -0.01000
C3716       C  0.89257883  0.57557088  0.15759158     0.03900
C3717       C  0.83431143  0.50167654  0.18465987     0.38600
C3718       C  0.92869255  0.62437973  0.17823394     0.38600
C3719       C  0.89949790  0.59280335  0.13647607     0.37000
C3720       C  0.88625855  0.52229983  0.21505938     0.37000
N3721       N  0.90517475  0.60687792  0.11975228    -0.37800
N3722       N  0.88592179  0.50644582  0.22936759    -0.37800
N3723       N  0.94358050  0.65106494  0.17906467    -0.37300
N3724       N  0.81053214  0.98015015  0.18858409    -0.37300
C3725       C  0.58158117  0.63517243  0.30714544    -0.03900
C3726       C  0.57320789  0.61744444  0.32741090    -0.01100
C3727       C  0.59317882  0.62773846  0.34637599     0.03900
C3728       C  0.62394083  0.65185286  0.34385775    -0.03900
C3729       C  0.63323751  0.66887195  0.32341267    -0.01000
C3730       C  0.61162577  0.66152860  0.30551684     0.03900
C3731       C  0.54402966  0.58862176  0.32905665     0.38600
C3732       C  0.66447673  0.69501028  0.32138344     0.38600
C3733       C  0.61999261  0.68197705  0.28609569     0.37000
C3734       C  0.58131895  0.61511988  0.36882810     0.37000
N3735       N  0.62704608  0.69877650  0.27084779    -0.37800
N3736       N  0.57149913  0.60558234  0.38677923    -0.37800
N3737       N  0.68935823  0.71595787  0.31979267    -0.37300
N3738       N  0.52111169  0.56535738  0.33095304    -0.37300
C3739       C  0.57113282  0.62542096  0.18817652    -0.03900
C3740       C  0.56423075  0.60619992  0.16862196    -0.01100
C3741       C  0.58411571  0.61671191  0.14960245     0.03900
C3742       C  0.61398511  0.64290158  0.15166940    -0.03900
C3743       C  0.62194885  0.66128218  0.17160292    -0.01000
C3744       C  0.59985628  0.65372123  0.18905973     0.03900
C3745       C  0.53664187  0.57576471  0.16782026     0.38600
C3746       C  0.65259861  0.68836492  0.17392246     0.38600
C3747       C  0.60632962  0.67576277  0.20737397     0.37000
C3748       C  0.57299311  0.60193887  0.12749345     0.37000
N3749       N  0.61147282  0.69364188  0.22176833    -0.37800
N3750       N  0.56378735  0.59066814  0.10972230    -0.37800
N3751       N  0.67707579  0.70989521  0.17596055    -0.37300
N3752       N  0.51467519  0.55145685  0.16699189    -0.37300
C3753       C  0.66638416  0.70192925  0.08152577    -0.03900
C3754       C  0.65319815  0.69380028  0.05946487    -0.01100
C3755       C  0.65706590  0.71689776  0.04390011     0.03900
C3756       C  0.67165792  0.74834857  0.05099971    -0.03900
C3757       C  0.68425883  0.75620786  0.07351144    -0.01000
C3758       C  0.68178661  0.73317204  0.08850105     0.03900
C3759       C  0.63293392  0.66155973  0.05342554     0.38600
C3760       C  0.70001962  0.78801862  0.08160371     0.38600
C3761       C  0.69397079  0.74156996  0.11163700     0.37000
C3762       C  0.64527004  0.70764477  0.02077425     0.37000
N3763       N  0.70352620  0.74841923  0.13009624    -0.37800
N3764       N  0.63627291  0.69989914  0.00227927    -0.37800
N3765       N  0.71233090  0.81327654  0.08823779    -0.37300
N3766       N  0.61583625  0.63611743  0.04834917    -0.37300
C3767       C  0.58571866  0.82938803  0.05445387    -0.03900
C3768       C  0.57318612  0.84876364  0.05101655    -0.01100
C3769       C  0.54987629  0.84707850  0.06569190     0.03900
C3770       C  0.53857274  0.82593977  0.08404698    -0.03900
C3771       C  0.55191943  0.80739098  0.08797217    -0.01000
C3772       C  0.57462560  0.80845009  0.07297834     0.03900
C3773       C  0.58598173  0.87226574  0.03344361     0.38600
C3774       C  0.54459983  0.78938675  0.10874749     0.38600
C3775       C  0.58655589  0.78786813  0.07677551     0.37000
C3776       C  0.53967533  0.86918060  0.06298396     0.37000
N3777       N  0.59599300  0.77139495  0.07983782    -0.37800
N3778       N  0.53255371  0.88758364  0.06060093    -0.37800
N3779       N  0.53959116  0.77561227  0.12556196    -0.37300
N3780       N  0.59640914  0.89124227  0.01960750    -0.37300
C3781       C  0.80294619  0.96867494  0.08025470    -0.03900
C3782       C  0.81149793  0.96331144  0.05852588    -0.01100
C3783       C  0.78912033  0.93992895  0.04396308     0.03900
C3784       C  0.75779698  0.92134922  0.05114942    -0.03900
C3785       C  0.74934224  0.92763357  0.07281238    -0.01000
C3786       C  0.77184334  0.95058986  0.08734481     0.03900
C3787       C  0.84356619  0.98110250  0.05140877     0.38600
C3788       C  0.71726138  0.91120694  0.08018551     0.38600
C3789       C  0.76309830  0.95477088  0.11017759     0.37000
C3790       C  0.79889570  0.93481467  0.02183333     0.37000
N3791       N  0.75618424  0.45766735  0.12842024    -0.37800
N3792       N  0.80689408  0.93108994  0.00414537    -0.37800
N3793       N  0.69170360  0.89821081  0.08609112    -0.37300
N3794       N  0.86908430  0.99492387  0.04548320    -0.37300
C3795       C  0.67069511  0.70852779  0.41615209    -0.03900
C3796       C  0.65678443  0.69877395  0.43786560    -0.01100
C3797       C  0.65782994  0.72050156  0.45386120     0.03900
C3798       C  0.67076239  0.75183118  0.44770484    -0.03900
C3799       C  0.68264888  0.76117067  0.42540700    -0.01000
C3800       C  0.68287720  0.73974939  0.40981686     0.03900
C3801       C  0.63826266  0.66613504  0.44290920     0.38600
C3802       C  0.69257587  0.79234145  0.41788526     0.38600
C3803       C  0.69388775  0.74950527  0.38667958     0.37000
C3804       C  0.64547230  0.71051761  0.47666696     0.37000
N3805       N  0.70230580  0.75721758  0.36815959    -0.37800
N3806       N  0.63573309  0.70256406  0.49488641    -0.37800
N3807       N  0.70010853  0.81707781  0.41185036    -0.37300
N3808       N  0.62237142  0.64024287  0.44712465    -0.37300
C3809       C  0.57938757  0.82330849  0.44733826    -0.03900
C3810       C  0.56183010  0.83681109  0.45389659    -0.01100
C3811       C  0.54111523  0.83823871  0.43830475     0.03900
C3812       C  0.53597628  0.82411397  0.41648940    -0.03900
C3813       C  0.55246092  0.80906659  0.41038093    -0.01000
C3814       C  0.57401384  0.80862187  0.42575678     0.03900
C3815       C  0.56508564  0.84925100  0.47686835     0.38600
C3816       C  0.54899961  0.79596768  0.38761084     0.38600
C3817       C  0.59190249  0.79456853  0.41880038     0.37000
C3818       C  0.52827080  0.85754542  0.44393632     0.37000
N3819       N  0.60613622  0.78336760  0.41318068    -0.37800
N3820       N  0.01812642  0.87286463  0.44928745    -0.37800
N3821       N  0.54656076  0.78582807  0.36938338    -0.37300
N3822       N  0.56751798  0.85879509  0.49529046    -0.37300
C3823       C  0.79002170  0.96816991  0.41506375    -0.03900
C3824       C  0.80096934  0.96135342  0.43527279    -0.01100
C3825       C  0.78006887  0.93880973  0.45072234     0.03900
C3826       C  0.74804545  0.92147576  0.44565678    -0.03900
C3827       C  0.73716056  0.92756503  0.42511840    -0.01000
C3828       C  0.75791866  0.95074318  0.41000192     0.03900
C3829       C  0.83396007  0.97506811  0.43920315     0.38600
C3830       C  0.70474739  0.90862561  0.41873026     0.38600
C3831       C  0.74626307  0.95526930  0.38852484     0.37000
C3832       C  0.79169087  0.93377394  0.47200490     0.37000
N3833       N  0.73683527  0.95843188  0.37129213    -0.37800
N3834       N  0.80116994  0.93013849  0.48903077    -0.37800
N3835       N  0.67895205  0.89339355  0.41355555    -0.37300
N3836       N  0.86011438  0.98496160  0.44248496    -0.37300
C3837       C  0.53510116  0.70814803  0.91919163    -0.03900
C3838       C  0.54319553  0.69805055  0.93914150    -0.01100
C3839       C  0.56613734  0.71965140  0.95424001     0.03900
C3840       C  0.58221384  0.75149841  0.94907302    -0.03900
C3841       C  0.57420744  0.76163785  0.92907038    -0.01000
C3842       C  0.55095224  0.74008391  0.91416043     0.03900
C3843       C  0.52950463  0.66532701  0.94351763     0.38600
C3844       C  0.59122812  0.79414492  0.92304979     0.38600
C3845       C  0.54544126  0.75064060  0.89257090     0.37000
C3846       C  0.57271836  0.70901734  0.97534923     0.37000
N3847       N  0.54171359  0.75935067  0.87524350    -0.37800
N3848       N  0.57753212  0.70033193  0.99227593    -0.37800
N3849       N  0.60490967  0.82006244  0.91829829    -0.37300
N3850       N  0.51946687  0.63937104  0.94726383    -0.37300
C3851       C  0.67230359  0.96173536  0.91750859    -0.03900
C3852       C  0.70004818  0.96185331  0.92170172    -0.01100
C3853       C  0.70116348  0.94200725  0.93829985     0.03900
C3854       C  0.67370516  0.91974280  0.94976112    -0.03900
C3855       C  0.64595959  0.92035244  0.94571574    -0.01000
C3856       C  0.64542938  0.94116063  0.92986135     0.03900
C3857       C  0.72683664  0.98010212  0.90739020     0.38600
C3858       C  0.61722345  0.89927908  0.95725414     0.38600
C3859       C  0.61633161  0.94001054  0.92518228     0.37000
C3860       C  0.73088273  0.94462710  0.94292791     0.37000
N3861       N  0.59313140  0.93889469  0.92128926    -0.37800
N3862       N  0.75473507  0.94707523  0.94662079    -0.37800
N3863       N  0.59407295  0.88245483  0.96613860    -0.37300
N3864       N  0.74831313  0.49382933  0.89603940    -0.37300
C3865       C  0.75126424  0.83006516  0.55079820    -0.03900
C3866       C  0.78354897  0.84798186  0.54682822    -0.01100
C3867       C  0.80481086  0.85013157  0.56369711     0.03900
C3868       C  0.79439906  0.83068020  0.58301705    -0.03900
C3869       C  0.76224487  0.81066820  0.58602243    -0.01000
C3870       C  0.74080761  0.81095729  0.57041561     0.03900
C3871       C  0.79528371  0.86463431  0.52558472     0.38600
C3872       C  0.75100276  0.79145348  0.60622096     0.38600
C3873       C  0.70787659  0.79135109  0.57466185     0.37000
C3874       C  0.83685225  0.87470296  0.56212291     0.37000
N3875       N  0.68162535  0.77589785  0.57815204    -0.37800
N3876       N  0.86196553  0.89529276  0.56071622    -0.37800
N3877       N  0.74177827  0.77624219  0.62237237    -0.37300
N3878       N  0.80500707  0.87726915  0.50843875    -0.37300
C3879       C  0.80000064  0.83499910  0.91470164    -0.03900
C3880       C  0.80871406  0.84806673  0.93691876    -0.01100
C3881       C  0.78602381  0.84518961  0.95278313     0.03900
C3882       C  0.75450396  0.83088193  0.94627529    -0.03900
C3883       C  0.74578270  0.81826599  0.92399473    -0.01000
C3884       C  0.76832595  0.82041560  0.90831839     0.03900
C3885       C  0.84113784  0.86711195  0.94294160     0.38600
C3886       C  0.71368919  0.80433343  0.91678683     0.38600
C3887       C  0.75898994  0.80891372  0.88514421     0.37000
C3888       C  0.79508397  0.85650206  0.97604702     0.37000
N3889       N  0.75150370  0.79999995  0.86659846    -0.37800
N3890       N  0.80223722  0.86515351  0.99468424    -0.37800
N3891       N  0.68807210  0.79332437  0.91111144    -0.37300
N3892       N  0.86676627  0.88325406  0.94816234    -0.37300
C3893       C  0.67449501  0.92391691  0.55007527    -0.03900
C3894       C  0.69239689  0.93167337  0.57047462    -0.01100
C3895       C  0.69172188  0.95230045  0.58662418     0.03900
C3896       C  0.67499907  0.96743132  0.58209309    -0.03900
C3897       C  0.65798885  0.96065818  0.56141074    -0.01000
C3898       C  0.65797609  0.93935594  0.54538932     0.03900
C3899       C  0.71177748  0.91849031  0.57511562     0.38600
C3900       C  0.63751281  0.97274260  0.55769820     0.38600
C3901       C  0.63945536  0.93230544  0.52470722     0.37000
C3902       C  0.70637965  0.95592646  0.60876404     0.37000
N3903       N  0.62471637  0.92696445  0.50822228    -0.37800
N3904       N  0.71764443  0.95814346  0.62650499    -0.37800
N3905       N  0.61998853  0.48104302  0.55506603    -0.37300
N3906       N  0.72719052  0.90796092  0.57883412    -0.37300
C3907       C  0.58023346  0.75692194  0.55458922    -0.03900
C3908       C  0.56176686  0.72480740  0.54978003    -0.01100
C3909       C  0.53981358  0.70450633  0.56584401     0.03900
C3910       C  0.53478654  0.71593069  0.58652899    -0.03900
C3911       C  0.55224108  0.74803594  0.59102677    -0.01000
C3912       C  0.57457164  0.76840784  0.57518736     0.03900
C3913       C  0.56618632  0.71195798  0.52879656     0.38600
C3914       C  0.54839775  0.76003679  0.61264382     0.38600
C3915       C  0.59148816  0.80129879  0.58027793     0.37000
C3916       C  0.52478163  0.67151034  0.56183820     0.37000
N3917       N  0.60496766  0.82749306  0.58443630    -0.37800
N3918       N  0.51397627  0.64539118  0.55810302    -0.37800
N3919       N  0.54569158  0.76968180  0.62996020    -0.37300
N3920       N  0.56944239  0.70155233  0.51205060    -0.37300
C3921       C  0.92119412  0.83836258  0.80653146    -0.03900
C3922       C  0.89714526  0.81109630  0.81631961    -0.01100
C3923       C  0.87689652  0.81276477  0.83244331     0.03900
C3924       C  0.88375947  0.84176541  0.84195942    -0.03900
C3925       C  0.91033478  0.86859689  0.83388001    -0.01000
C3926       C  0.92591989  0.86709827  0.81435677     0.03900
C3927       C  0.89412861  0.78155824  0.81071662     0.38600
C3928       C  0.92597875  0.89619369  0.84787340     0.38600
C3929       C  0.94793844  0.89543518  0.80291594     0.37000
C3930       C  0.84968492  0.78441746  0.83972168     0.37000
N3931       N  0.96505734  0.91793732  0.79350729    -0.37800
N3932       N  0.82807445  0.76174636  0.84558601    -0.37800
N3933       N  0.94053979  0.91822793  0.85883174    -0.37300
N3934       N  0.89189600  0.75800585  0.80637822    -0.37300
C3935       C  0.58104560  0.91284688  0.80743271    -0.03900
C3936       C  0.60548488  0.90884625  0.81528120    -0.01100
C3937       C  0.62730429  0.93018650  0.83118985     0.03900
C3938       C  0.62096328  0.95109859  0.84298619    -0.03900
C3939       C  0.59306751  0.95021923  0.83807106    -0.01000
C3940       C  0.57677115  0.93581284  0.81801223     0.03900
C3941       C  0.60714938  0.88201886  0.80833374     0.38600
C3942       C  0.57707107  0.95671615  0.85583862     0.38600
C3943       C  0.55419318  0.94327739  0.80939769     0.37000
C3944       C  0.65551551  0.92981281  0.83587069     0.37000
N3945       N  0.53643527  0.94956196  0.80253410    -0.37800
N3946       N  0.67807982  0.92959542  0.83963728    -0.37800
N3947       N  0.56280693  0.95978134  0.87007575    -0.37300
N3948       N  0.60842446  0.86051683  0.80288121    -0.37300
C3949       C  0.62429528  0.96345768  0.65588756    -0.03900
C3950       C  0.59512708  0.93724486  0.65089586    -0.01100
C3951       C  0.57567977  0.91905001  0.66876416     0.03900
C3952       C  0.58240526  0.92934645  0.69181001    -0.03900
C3953       C  0.61208746  0.95550260  0.69674209    -0.01000
C3954       C  0.63364960  0.97049613  0.67896893     0.03900
C3955       C  0.58465791  0.92906292  0.62735756     0.38600
C3956       C  0.62134021  0.96714728  0.71987844     0.38600
C3957       C  0.66603304  0.99136458  0.68450531     0.37000
C3958       C  0.54969435  0.88876865  0.66332719     0.37000
N3959       N  0.69215356  0.50771733  0.68927349    -0.37800
N3960       N  0.52960224  0.86433894  0.65866238    -0.37800
N3961       N  0.62961982  0.97641076  0.73825782    -0.37300
N3962       N  0.57633680  0.92275895  0.60857875    -0.37300
C3963       C  0.87570040  0.84361910  0.65918239    -0.03900
C3964       C  0.90302426  0.84345322  0.65297245    -0.01100
C3965       C  0.92393787  0.84520427  0.66984506     0.03900
C3966       C  0.92098222  0.85224710  0.69273182    -0.03900
C3967       C  0.89418276  0.85327741  0.69897932    -0.01000
C3968       C  0.87064042  0.84650783  0.68266775     0.03900
C3969       C  0.91028418  0.84176407  0.62917041     0.38600
C3970       C  0.89004019  0.85982081  0.72245533     0.38600
C3971       C  0.84056389  0.84011584  0.69053966     0.37000
C3972       C  0.94709359  0.83729223  0.66381043     0.37000
N3973       N  0.81663060  0.83451579  0.69742052    -0.37800
N3974       N  0.96462989  0.82979857  0.65880018    -0.37800
N3975       N  0.88675369  0.86405639  0.74144667    -0.37300
N3976       N  0.91657434  0.84034338  0.61034475    -0.37300
C3977       C  0.55913246  0.63323822  0.81516281    -0.03900
C3978       C  0.57050073  0.66428550  0.82137680    -0.01100
C3979       C  0.55656141  0.67164870  0.83935638     0.03900
C3980       C  0.53039298  0.64785943  0.85092006    -0.03900
C3981       C  0.52103171  0.61671604  0.84610313    -0.01000
C3982       C  0.53491548  0.60943159  0.82796892     0.03900
C3983       C  0.59588743  0.68871027  0.80861605     0.38600
C3984       C  0.99640922  0.59211592  0.85930989     0.38600
C3985       C  0.52298968  0.57741353  0.82158806     0.37000
C3986       C  0.56831315  0.70391338  0.84496933     0.37000
N3987       N  0.51302724  0.55184386  0.81630638    -0.37800
N3988       N  0.57813870  0.72970851  0.84947556    -0.37800
N3989       N  0.97667601  0.57256502  0.86979557    -0.37300
N3990       N  0.61598864  0.70808865  0.79827489    -0.37300
C3991       C  0.62715575  0.54526813  0.80665565    -0.03900
C3992       C  0.61106507  0.53612212  0.82772662    -0.01100
C3993       C  0.62294230  0.52723892  0.84608163     0.03900
C3994       C  0.64611944  0.51980191  0.84217779    -0.03900
C3995       C  0.66064851  0.52606688  0.82064460    -0.01000
C3996       C  0.65257625  0.54050560  0.80342087     0.03900
C3997       C  0.58160554  0.53466198  0.83044706     0.38600
C3998       C  0.68475701  0.51873395  0.81663529     0.38600
C3999       C  0.67102276  0.55092466  0.78278219     0.37000
C4000       C  0.61166950  0.52638190  0.86907772     0.37000
N4001       N  0.68574600  0.55896834  0.76629077    -0.37800
N4002       N  0.60281083  0.52593264  0.88743193    -0.37800
N4003       N  0.70388993  0.51269319  0.81357597    -0.37300
N4004       N  0.55790934  0.53306053  0.83269562    -0.37300
C4005       C  0.62838712  0.55799457  0.68798331    -0.03900
C4006       C  0.66000740  0.56833128  0.68444000    -0.01100
C4007       C  0.66902812  0.55527712  0.66679278     0.03900
C4008       C  0.64636414  0.53157130  0.65261927    -0.03900
C4009       C  0.61489959  0.52282654  0.65529222    -0.01000
C4010       C  0.60587760  0.53528045  0.67332982     0.03900
C4011       C  0.68319049  0.59212435  0.69926128     0.38600
C4012       C  0.59166697  0.00173970  0.63882128     0.38600
C4013       C  0.57329717  0.52398259  0.67730199     0.37000
C4014       C  0.70161684  0.56584510  0.66359295     0.37000
N4015       N  0.54726856  0.51463636  0.68062202    -0.37800
N4016       N  0.72761749  0.57426628  0.66107235    -0.37800
N4017       N  0.57314704  0.98547836  0.62569104    -0.37300
N4018       N  0.70157400  0.61111988  0.71113798    -0.37300
C4019       C  0.55986898  0.64561200  0.69394769    -0.03900
C4020       C  0.54818175  0.62775818  0.67357869    -0.01100
C4021       C  0.53851501  0.63878214  0.65520578     0.03900
C4022       C  0.53225013  0.66272983  0.65877013    -0.03900
C4023       C  0.54338109  0.68074605  0.67890242    -0.01000
C4024       C  0.55909632  0.67347536  0.69571953     0.03900
C4025       C  0.54459110  0.59732828  0.67156615     0.38600
C4026       C  0.53995497  0.70753479  0.68170530     0.38600
C4027       C  0.57481488  0.69497016  0.71442103     0.37000
C4028       C  0.53774279  0.62736454  0.63224186     0.37000
N4029       N  0.58722168  0.71213301  0.72937482    -0.37800
N4030       N  0.53801794  0.61892383  0.61382581    -0.37800
N4031       N  0.53727287  0.72897512  0.68380422    -0.37300
N4032       N  0.54141345  0.57292384  0.66990823    -0.37300
C4033       C  0.92126782  0.57994741  0.81210405    -0.03900
C4034       C  0.95372181  0.59802329  0.80951454    -0.01100
C4035       C  0.97054076  0.62465148  0.82302961     0.03900
C4036       C  0.95957939  0.62571182  0.84501121    -0.03900
C4037       C  0.92756525  0.60418924  0.84942325    -0.01000
C4038       C  0.90802716  0.58544758  0.83147422     0.03900
C4039       C  0.96923950  0.58966110  0.79251764     0.38600
C4040       C  0.91425380  0.59981658  0.87205532     0.38600
C4041       C  0.87494030  0.57338591  0.83265182     0.37000
C4042       C  0.49457166  0.65246575  0.81241700     0.37000
N4043       N  0.84852794  0.56377617  0.83361353    -0.37800
N4044       N  0.51282483  0.67508591  0.80368729    -0.37800
N4045       N  0.90296793  0.59572239  0.88992832    -0.37300
N4046       N  0.48026328  0.58112153  0.77905713    -0.37300
C4047       C  0.86536293  0.92508912  0.80571175    -0.03900
C4048       C  0.84174357  0.89345642  0.80380453    -0.01100
C4049       C  0.83796339  0.87228542  0.82121655     0.03900
C4050       C  0.85496940  0.88302841  0.84180596    -0.03900
C4051       C  0.87596271  0.91492303  0.84461606    -0.01000
C4052       C  0.88397487  0.93484169  0.82577167     0.03900
C4053       C  0.82075258  0.88259722  0.78436296     0.38600
C4054       C  0.88852435  0.92752114  0.86708269     0.38600
C4055       C  0.91156887  0.96530090  0.82708784     0.37000
C4056       C  0.81535254  0.83967453  0.81857508     0.37000
N4057       N  0.93360619  0.98956125  0.82804775    -0.37800
N4058       N  0.79735933  0.81361216  0.81660858    -0.37800
N4059       N  0.89834639  0.93764048  0.88502850    -0.37300
N4060       N  0.80405563  0.87373462  0.76881000    -0.37300
C4061       C  0.92389260  0.58698152  0.69226469    -0.03900
C4062       C  0.92255932  0.61415393  0.68883627    -0.01100
C4063       C  0.94337843  0.63702545  0.67354376     0.03900
C4064       C  0.96224313  0.63087162  0.65903771    -0.03900
C4065       C  0.95909266  0.60141755  0.65972408    -0.01000
C4066       C  0.94328791  0.58139718  0.67786175     0.03900
C4067       C  0.89929999  0.61820033  0.70045091     0.38600
C4068       C  0.46707137  0.58925740  0.64015915     0.38600
C4069       C  0.94723592  0.55506469  0.68143154     0.37000
C4070       C  0.94438857  0.66632051  0.67200949     0.37000
N4071       N  0.45082898  0.53435791  0.68454698    -0.37800
N4072       N  0.94518189  0.68968468  0.67067051    -0.37800
N4073       N  0.47153645  0.57818483  0.62431466    -0.37300
N4074       N  0.88067210  0.62136864  0.70967923    -0.37300
C4075       C  0.86262830  0.93321263  0.68648232    -0.03900
C4076       C  0.83171315  0.91128042  0.68083144    -0.01100
C4077       C  0.82528996  0.88814088  0.66444996     0.03900
C4078       C  0.84989264  0.88730000  0.65318323    -0.03900
C4079       C  0.88073995  0.91092756  0.65746982    -0.01000
C4080       C  0.88714569  0.93316352  0.67466250     0.03900
C4081       C  0.80651675  0.91224024  0.69225585     0.38600
C4082       C  0.90583320  0.91279481  0.64389838     0.38600
C4083       C  0.91899625  0.95512831  0.68082302     0.37000
C4084       C  0.79332943  0.86437677  0.66001955     0.37000
N4085       N  0.94454689  0.97211358  0.68579899    -0.37800
N4086       N  0.76787201  0.84540333  0.65652111    -0.37800
N4087       N  0.92591838  0.91450620  0.63302148    -0.37300
N4088       N  0.78646979  0.91317927  0.70128119    -0.37300
C4089       C  0.96314803  0.68018525  0.58654999    -0.03900
C4090       C  0.95439119  0.70278586  0.58767691    -0.01100
C4091       C  0.93180825  0.70148183  0.57243237     0.03900
C4092       C  0.91853378  0.67810347  0.55531503    -0.03900
C4093       C  0.92706051  0.65521609  0.55458480    -0.01000
C4094       C  0.94777983  0.65532432  0.57092743     0.03900
C4095       C  0.96589691  0.72524451  0.60622587     0.38600
C4096       C  0.91419065  0.63092695  0.53735916     0.38600
C4097       C  0.95027687  0.62792635  0.57337443     0.37000
C4098       C  0.92027824  0.72251165  0.57586060     0.37000
N4099       N  0.45052131  0.60512792  0.57626094    -0.37800
N4100       N  0.91081615  0.73900464  0.57884982    -0.37800
N4101       N  0.90397127  0.61132036  0.52380592    -0.37300
N4102       N  0.97440066  0.74281100  0.62123750    -0.37300
C4103       C  0.83163624  0.58458630  0.45089608    -0.03900
C4104       C  0.80585760  0.56647125  0.43659702    -0.01100
C4105       C  0.80626978  0.54514334  0.42095077     0.03900
C4106       C  0.83134031  0.53965375  0.42074862    -0.03900
C4107       C  0.85684679  0.55736930  0.43567192    -0.01000
C4108       C  0.85716174  0.58001979  0.45030919     0.03900
C4109       C  0.77905278  0.57030186  0.43760947     0.38600
C4110       C  0.88413058  0.55436508  0.43467067     0.38600
C4111       C  0.88505475  0.60071696  0.46310013     0.37000
C4112       C  0.78297399  0.53242231  0.40305568     0.37000
N4113       N  0.90756763  0.61762716  0.47285199    -0.37800
N4114       N  0.76427264  0.02378460  0.38850639    -0.37800
N4115       N  0.90625691  0.55260602  0.43381115    -0.37300
N4116       N  0.75763259  0.57326094  0.43852102    -0.37300
C4117       C  0.74784693  0.58329943  0.55052272    -0.03900
C4118       C  0.71720878  0.57814931  0.55208433    -0.01100
C4119       C  0.69534338  0.55544663  0.56697645     0.03900
C4120       C  0.70387745  0.53843153  0.58135723    -0.03900
C4121       C  0.73456905  0.54442907  0.58060834    -0.01000
C4122       C  0.75582326  0.56525733  0.56453567     0.03900
C4123       C  0.70783168  0.59654832  0.53899645     0.38600
C4124       C  0.74586173  0.53252826  0.59834357     0.38600
C4125       C  0.78644855  0.56882668  0.56360320     0.37000
C4126       C  0.66433697  0.55083688  0.56838441     0.37000
N4127       N  0.81071013  0.57134776  0.56283780    -0.37800
N4128       N  0.63974335  0.04777286  0.56990016    -0.37800
N4129       N  0.75614970  0.52458925  0.61267285    -0.37300
N4130       N  0.70015388  0.61138571  0.52900847    -0.37300
C4131       C  0.92052764  0.75416217  0.44889145    -0.03900
C4132       C  0.93704451  0.74512404  0.43431242    -0.01100
C4133       C  0.95863589  0.76624781  0.41850128     0.03900
C4134       C  0.96519647  0.79714510  0.41791861    -0.03900
C4135       C  0.94838834  0.80603125  0.43242327    -0.01000
C4136       C  0.92604828  0.78459236  0.44764162     0.03900
C4137       C  0.93130820  0.71376747  0.43518974     0.38600
C4138       C  0.95258958  0.83675052  0.43074120     0.38600
C4139       C  0.90660436  0.79304535  0.46034613     0.37000
C4140       C  0.97132587  0.75504769  0.40123033     0.37000
N4141       N  0.89070489  0.79976409  0.46995996    -0.37800
N4142       N  0.98040695  0.74528857  0.38725530    -0.37800
N4143       N  0.45651475  0.86170701  0.42984619    -0.37300
N4144       N  0.92669918  0.68875485  0.43585805    -0.37300
C4145       C  0.75243384  0.67590899  0.44899417    -0.03900
C4146       C  0.72165601  0.65091585  0.44901443    -0.01100
C4147       C  0.69992963  0.65026875  0.43344570     0.03900
C4148       C  0.70821791  0.67558037  0.41877622    -0.03900
C4149       C  0.73865329  0.70129100  0.41953744    -0.01000
C4150       C  0.76088043  0.70123031  0.43436364     0.03900
C4151       C  0.71284139  0.62476183  0.46397057     0.38600
C4152       C  0.74778874  0.72679489  0.40392604     0.38600
C4153       C  0.79256784  0.72694071  0.43425858     0.37000
C4154       C  0.66988873  0.62228958  0.43116649     0.37000
N4155       N  0.81787564  0.74737390  0.43405990    -0.37800
N4156       N  0.64621064  0.59968992  0.42923344    -0.37800
N4157       N  0.75551911  0.74726898  0.39150661    -0.37300
N4158       N  0.70585484  0.60392766  0.47588367    -0.37300
C4159       C  0.82707384  0.75028019  0.55502815    -0.03900
C4160       C  0.84675520  0.78256734  0.55298570    -0.01100
C4161       C  0.84617228  0.80266274  0.56955199     0.03900
C4162       C  0.82441202  0.79104081  0.58749415    -0.03900
C4163       C  0.80520665  0.75879397  0.58999076    -0.01000
C4164       C  0.80631072  0.73846392  0.57375251     0.03900
C4165       C  0.86802879  0.79551145  0.53397678     0.38600
C4166       C  0.78628900  0.74640765  0.61028829     0.38600
C4167       C  0.78734162  0.70534710  0.57721738     0.37000
C4168       C  0.87070312  0.83482065  0.56965767     0.37000
N4169       N  0.77225340  0.67895510  0.57999406    -0.37800
N4170       N  0.89118736  0.86005244  0.56988695    -0.37800
N4171       N  0.77166549  0.73623845  0.62665238    -0.37300
N4172       N  0.88529440  0.80638775  0.51903365    -0.37300
C4173       C  0.74866572  0.57986823  0.94433653    -0.03900
C4174       C  0.75784486  0.57762914  0.92191723    -0.01100
C4175       C  0.73673000  0.55447022  0.90669649     0.03900
C4176       C  0.70594556  0.53335723  0.91361088    -0.03900
C4177       C  0.69674637  0.53593435  0.93597445    -0.01000
C4178       C  0.71831748  0.55829416  0.95147630     0.03900
C4179       C  0.78896773  0.59965253  0.91433513     0.38600
C4180       C  0.66461130  0.51723945  0.94266758     0.38600
C4181       C  0.70966760  0.55794977  0.97514017     0.37000
C4182       C  0.74662936  0.55278983  0.88367201     0.37000
N4183       N  0.70269601  0.55675441  0.99412531    -0.37800
N4184       N  0.75454364  0.55140892  0.86533043    -0.37800
N4185       N  0.63897993  0.50305569  0.94826636    -0.37300
N4186       N  0.81379320  0.61727498  0.90834191    -0.37300
C4187       C  0.74595123  0.67105346  0.04738464    -0.03900
C4188       C  0.75500587  0.69366165  0.06484668    -0.01100
C4189       C  0.73305542  0.69204629  0.08070954     0.03900
C4190       C  0.70193150  0.66788125  0.07920137    -0.03900
C4191       C  0.69303921  0.64498684  0.06204504    -0.01000
C4192       C  0.71457809  0.64742456  0.04554226     0.03900
C4193       C  0.78703172  0.71846380  0.06668348     0.38600
C4194       C  0.66274842  0.61711491  0.06283147     0.38600
C4195       C  0.70453756  0.62456906  0.02737308     0.37000
C4196       C  0.74320196  0.71333399  0.09996474     0.37000
N4197       N  0.69608221  0.60647346  0.01274589    -0.37800
N4198       N  0.75169904  0.73000721  0.11552553    -0.37800
N4199       N  0.63893677  0.59451089  0.06365938    -0.37300
N4200       N  0.81257593  0.73822395  0.06818816    -0.37300
C4201       C  0.91718948  0.67454318  0.94622691    -0.03900
C4202       C  0.93229915  0.69979841  0.93086073    -0.01100
C4203       C  0.95519639  0.70180990  0.91566548     0.03900
C4204       C  0.96397088  0.67924441  0.91596702    -0.03900
C4205       C  0.94841679  0.65368785  0.93075720    -0.01000
C4206       C  0.92542404  0.65140496  0.94586033     0.03900
C4207       C  0.92305767  0.72286231  0.92939572     0.38600
C4208       C  0.95377373  0.62794523  0.92881659     0.38600
C4209       C  0.90984715  0.62456916  0.96054602     0.37000
C4210       C  0.96778230  0.72575126  0.89843370     0.37000
N4211       N  0.89723655  0.60292071  0.97198410    -0.37800
N4212       N  0.47706220  0.74485707  0.88458626    -0.37800
N4213       N  0.95721632  0.60694353  0.92692510    -0.37300
N4214       N  0.91577570  0.74129442  0.92813123    -0.37300
C4215       C  0.82659543  0.53836503  0.08178081    -0.03900
C4216       C  0.85219675  0.55661823  0.06744330    -0.01100
C4217       C  0.85118113  0.57721091  0.05159821     0.03900
C4218       C  0.82501228  0.58074383  0.05041354    -0.03900
C4219       C  0.79976325  0.56327655  0.06523838    -0.01000
C4220       C  0.80053282  0.54213877  0.08079830     0.03900
C4221       C  0.88088622  0.55652813  0.07056453     0.38600
C4222       C  0.77325320  0.56759665  0.06494242     0.38600
C4223       C  0.77532682  0.52587814  0.09677901     0.37000
C4224       C  0.87827278  0.59685365  0.03790316     0.37000
N4225       N  0.75508068  0.51348373  0.10954308    -0.37800
N4226       N  0.89988219  0.61280144  0.02709660    -0.37800
N4227       N  0.75214523  0.57110755  0.06491886    -0.37300
N4228       N  0.90401954  0.05721002  0.07340020    -0.37300
C4229       C  0.91794655  0.74609176  0.05335376    -0.03900
C4230       C  0.92896259  0.77814207  0.05293223    -0.01100
C4231       C  0.95257033  0.79849717  0.06821814     0.03900
C4232       C  0.96593299  0.78724022  0.08399426    -0.03900
C4233       C  0.95471297  0.75510964  0.08451210    -0.01000
C4234       C  0.93117762  0.73473356  0.06912615     0.03900
C4235       C  0.91415791  0.78994997  0.03809733     0.38600
C4236       C  0.96554073  0.74248057  0.10200643     0.38600
C4237       C  0.92034322  0.70190420  0.06974700     0.37000
C4238       C  0.96079774  0.83063265  0.06915829     0.37000
N4239       N  0.91166641  0.67572045  0.07028735    -0.37800
N4240       N  0.96645207  0.85599757  0.06993127    -0.37800
N4241       N  0.97328976  0.73161999  0.11601831    -0.37300
N4242       N  0.90213687  0.79937587  0.02650330    -0.37300
C4243       C  0.83172550  0.75306902  0.94676104    -0.03900
C4244       C  0.80799346  0.74568889  0.93025653    -0.01100
C4245       C  0.80963258  0.76859316  0.91535742     0.03900
C4246       C  0.83471720  0.79924834  0.91669513    -0.03900
C4247       C  0.85881969  0.80657299  0.93249360    -0.01000
C4248       C  0.85733749  0.78393547  0.94752041     0.03900
C4249       C  0.78307086  0.71399273  0.92694211     0.38600
C4250       C  0.88657614  0.83699264  0.93201731     0.38600
C4251       C  0.88335312  0.79270301  0.96284919     0.37000
C4252       C  0.78709437  0.75971492  0.89700174     0.37000
N4253       N  0.90462630  0.79999765  0.97457606    -0.37800
N4254       N  0.76927482  0.75198664  0.88220031    -0.37800
N4255       N  0.90889073  0.86104988  0.93143715    -0.37300
N4256       N  0.76329871  0.68873706  0.92405776    -0.37300
loop_ 
_geom_bond_atom_site_label_1 
_geom_bond_atom_site_label_2 
_geom_bond_distance 
_geom_bond_site_symmetry_2 
_ccdc_geom_bond_type 
Zn1           O5   1.959   1_554  S
Zn1           O6   2.010       .  S
Zn1          O10   2.039       .  S
Zn1          O17   2.021       .  S
Zn2           O5   1.973       .  S
Zn2           O7   2.041       .  S
Zn2           O9   2.024   1_556  S
Zn2          O13   2.059       .  S
Zn3           O5   1.964       .  S
Zn3           O8   2.033   1_556  S
Zn3          O11   2.016       .  S
Zn3          O14   2.001       .  S
Zn4           O5   1.963       .  S
Zn4          O12   2.034       .  S
Zn4          O15   2.027       .  S
Zn4          O16   2.046   1_556  S
O6           C18   1.274       .  A
O7           C19   1.277       .  A
O8           C20   1.274       .  A
O9           C18   1.275       .  A
O10          C20   1.275       .  A
O11          C19   1.274       .  A
O12          C21   1.277       .  A
O13          C22   1.278       .  A
O14          C21   1.271       .  A
O15          C22   1.274       .  A
O16          C23   1.278       .  A
O17          C23   1.274       .  A
C18         C995   1.484       .  S
C19        C1051   1.511       .  S
C20        C1037   1.497       .  S
C21        C1009   1.502       .  S
C22         C981   1.493       .  S
C23        C1026   1.492       .  S
Zn24         O28   1.951       .  S
Zn24         O29   2.018       .  S
Zn24         O33   2.021       .  S
Zn24         O40   2.029       .  S
Zn25         O28   1.964       .  S
Zn25         O30   2.030       .  S
Zn25         O32   2.036       .  S
Zn25         O36   2.019       .  S
Zn26         O28   1.958       .  S
Zn26         O31   1.996       .  S
Zn26         O34   1.993       .  S
Zn26         O37   2.017       .  S
Zn27         O28   1.952       .  S
Zn27         O35   2.017       .  S
Zn27         O38   2.019       .  S
Zn27         O39   2.025       .  S
O29          C41   1.274       .  A
O30          C42   1.276       .  A
O31          C43   1.271       .  A
O32          C41   1.276       .  A
O33          C43   1.274       .  A
O34          C42   1.270       .  A
O35          C44   1.273       .  A
O36          C45   1.274       .  A
O37          C44   1.272       .  A
O38          C45   1.275       .  A
O39          C46   1.274       .  A
O40          C46   1.275       .  A
C41         C939   1.488       .  S
C42         C967   1.490       .  S
C43         C953   1.477       .  S
C44         C925   1.510       .  S
C45         C900   1.495       .  S
C46         C911   1.488       .  S
N47          C52   1.358       .  A
N47        C1115   1.353       .  A
N47          H79   1.038       .  S
N48          C55   1.352       .  A
N48          C56   1.357       .  A
N49          C54   1.350       .  A
N49        C1117   1.349       .  A
N49          H80   1.039       .  S
N50          C57   1.351       .  A
N50          C58   1.348       .  A
C51        N1111   1.353       .  A
C51          C59   1.389       .  A
C51          C67   1.422       .  A
C52          C68   1.422       .  A
C52          C60   1.383       .  A
C53        N1113   1.348       .  A
C53          C61   1.386       .  A
C53          C70   1.409       .  A
C54          C69   1.410       .  A
C54          C62   1.387       .  A
C55          C67   1.425       .  A
C55          C63   1.390       .  A
C56          C70   1.415       .  A
C56          C64   1.383       .  A
C57          C65   1.383       .  A
C57          C68   1.411       .  A
C58          C66   1.381       .  A
C58          C69   1.408       .  A
C59        C1124   1.372   1_545  A
C59          H71   1.075       .  S
C60        C1123   1.372       .  A
C60          H72   1.082       .  S
C61        C1126   1.379   1_545  A
C61          H73   1.082       .  S
C62        C1125   1.379       .  A
C62          H74   1.082       .  S
C63          C64   1.366       .  A
C63          H75   1.081       .  S
C64          H76   1.080       .  S
C65          C66   1.376       .  A
C65          H77   1.081       .  S
C66          H78   1.079       .  S
C67         C841   1.504       .  S
C68         C855   1.517       .  S
C69         C883   1.488       .  S
C70         C869   1.507       .  S
N81          C86   1.354       .  A
N81          C85   1.349       .  A
N81         H113   1.042       .  S
N82          C89   1.350       .  A
N82          C90   1.355       .  A
N83          C88   1.351       .  A
N83          C87   1.352       .  A
N83         H114   1.042       .  S
N84          C91   1.351       .  A
N84          C92   1.346       .  A
C85          C93   1.385       .  A
C85         C101   1.409       .  A
C86         C102   1.420       .  A
C86          C94   1.389       .  A
C87          C95   1.389       .  A
C87         C104   1.419       .  A
C88         C103   1.411       .  A
C88          C96   1.386       .  A
C89         C101   1.415       .  A
C89          C97   1.382       .  A
C90         C104   1.419       .  A
C90          C98   1.386       .  A
C91          C99   1.385       .  A
C91         C102   1.412       .  A
C92         C100   1.381       .  A
C92         C103   1.407       .  A
C93          C94   1.380       .  A
C93         H105   1.082       .  S
C94         H106   1.082       .  S
C95          C96   1.381       .  A
C95         H107   1.082       .  S
C96         H108   1.082       .  S
C97          C98   1.376       .  A
C97         H109   1.077       .  S
C98         H110   1.082       .  S
C99         C100   1.380       .  A
C99         H111   1.082       .  S
C100        H112   1.078       .  S
C101        C785   1.496       .  S
C102        C799   1.515       .  S
C103        C813   1.493       .  S
C104        C827   1.516       .  S
N115        C120   1.358       .  A
N115       C2247   1.354       .  A
N115        H147   1.038       .  S
N116        C123   1.350       .  A
N116        C124   1.354       .  A
N117        C122   1.354       .  A
N117       C2249   1.355       .  A
N117        H148   1.042       .  S
N118        C125   1.349       .  A
N118        C126   1.349       .  A
C119       N2243   1.354       .  A
C119        C127   1.390       .  A
C119        C135   1.425       .  A
C120        C136   1.420       .  A
C120        C128   1.385       .  A
C121       N2245   1.355       .  A
C121        C129   1.388       .  A
C121        C138   1.423       .  A
C122        C137   1.421       .  A
C122        C130   1.388       .  A
C123        C135   1.414       .  A
C123        C131   1.386       .  A
C124        C138   1.417       .  A
C124        C132   1.383       .  A
C125        C133   1.383       .  A
C125        C136   1.406       .  A
C126        C134   1.387       .  A
C126        C137   1.414       .  A
C127       C2256   1.372   1_455  A
C127        H139   1.082       .  S
C128       C2255   1.372       .  A
C128        H140   1.082       .  S
C129       C2258   1.383   1_455  A
C129        H141   1.083       .  S
C130       C2257   1.382       .  A
C130        H142   1.082       .  S
C131        C132   1.373       .  A
C131        H143   1.077       .  S
C132        H144   1.082       .  S
C133        C134   1.375       .  A
C133        H145   1.080       .  S
C134        H146   1.082       .  S
C135        C743   1.501       .  S
C136        C729   1.505       .  S
C137        C774   1.510       .  S
C138        C760   1.520       .  S
C149        C718   1.500       .  S
C149        C154   1.408       .  A
C149       C2278   1.420   1_455  A
C150        C897   1.488       .  S
C150        C151   1.399       .  A
C150       C2277   1.420       .  A
C151        C152   1.396       .  A
C151        H156   1.085       .  S
C152        C872   1.493       .  S
C152       C2281   1.419       .  A
C153        C830   1.493       .  S
C153        C154   1.405       .  A
C153       C2280   1.419   1_455  A
C154        H155   1.084       .  S
C157        C928   1.498       .  S
C157        C162   1.408       .  A
C157       C1222   1.421   1_545  A
C158        C704   1.501       .  S
C158        C159   1.403       .  A
C158       C1221   1.421       .  A
C159        C160   1.404       .  A
C159        H164   1.084       .  S
C160        C757   1.500       .  S
C160       C1225   1.418       .  A
C161        C816   1.499       .  S
C161        C162   1.404       .  A
C161       C1224   1.419   1_545  A
C162        H163   1.084       .  S
C165       C1054   1.493       .  S
C165        C166   1.419       .  A
C165        C170   1.405       .  A
C166        C687   1.509       .  S
C166        C167   1.409       .  A
C167        C168   1.412       .  A
C167        H172   1.084       .  S
C168        C858   1.494       .  S
C168        C169   1.423       .  A
C169        C732   1.514       .  S
C169        C170   1.404       .  A
C170        H171   1.085       .  S
C173        C970   1.486       .  S
C173        C174   1.413       .  A
C173        C178   1.401       .  A
C174        C676   1.497       .  S
C174        C175   1.398       .  A
C175        C176   1.406       .  A
C175        H180   1.085       .  S
C176        C886   1.490       .  S
C176        C177   1.424       .  A
C177        C771   1.510       .  S
C177        C178   1.405       .  A
C178        H179   1.085       .  S
C181        C984   1.502       .  S
C181        C186   1.408       .  A
C181       C1246   1.423   1_545  A
C182        C659   1.497       .  S
C182        C183   1.405       .  A
C182       C1245   1.423       .  A
C183        C184   1.398       .  A
C183        H188   1.085       .  S
C184        C746   1.498       .  S
C184       C1249   1.417       .  A
C185        C802   1.493       .  S
C185        C186   1.404       .  A
C185       C1248   1.417   1_545  A
C186        H187   1.084       .  S
C189       C1012   1.491       .  S
C189        C194   1.398       .  A
C189       C2318   1.411       .  A
C190        C645   1.493       .  S
C190        C191   1.399       .  A
C190       C2317   1.411   1_455  A
C191        C192   1.407       .  A
C191        H196   1.085       .  S
C192        C788   1.503       .  S
C192       C2321   1.437   1_455  A
C193        C844   1.517       .  S
C193        C194   1.407       .  A
C193       C2320   1.437       .  A
C194        H195   1.083       .  S
Zn197       O201   1.970       .  S
Zn197       O202   2.054       .  S
Zn197       O206   2.026       .  S
Zn197       O213   2.044       .  S
Zn198       O201   1.966       .  S
Zn198       O203   2.030       .  S
Zn198       O205   2.024       .  S
Zn198       O209   2.044       .  S
Zn199       O201   1.969       .  S
Zn199       O204   2.028       .  S
Zn199       O207   2.011       .  S
Zn199       O210   2.038       .  S
Zn200       O201   1.950       .  S
Zn200       O208   2.028       .  S
Zn200       O211   2.015       .  S
Zn200       O212   2.025       .  S
O202        C214   1.278       .  A
O203        C215   1.277       .  A
O204        C216   1.276       .  A
O205        C214   1.274       .  A
O206        C216   1.276       .  A
O207        C215   1.272       .  A
O208        C217   1.274       .  A
O209        C218   1.276       .  A
O210        C217   1.275       .  A
O211        C218   1.275       .  A
O212        C219   1.276       .  A
O213        C219   1.277       .  A
C214        C634   1.498       .  S
C215        C617   1.485       .  S
C216        C606   1.489       .  S
C217        C715   1.509       .  S
C218        C701   1.506       .  S
C219        C673   1.502       .  S
Zn220       O224   1.972   1_556  S
Zn220       O225   2.042       .  S
Zn220       O229   2.024   1_556  S
Zn220       O236   2.023       .  S
Zn221       O224   1.977   1_556  S
Zn221       O226   2.032   1_556  S
Zn221       O228   2.050       .  S
Zn221       O232   2.045       .  S
Zn222       O224   1.957       .  S
Zn222       O227   2.036       .  S
Zn222       O230   2.005       .  S
Zn222       O233   2.046       .  S
Zn223       O224   1.962   1_556  S
Zn223       O231   2.037   1_556  S
Zn223       O234   2.012       .  S
Zn223       O235   2.017       .  S
O225        C237   1.276       .  A
O226        C238   1.275       .  A
O227        C239   1.277       .  A
O228        C237   1.277       .  A
O229        C239   1.273       .  A
O230        C238   1.273       .  A
O231        C240   1.274       .  A
O232        C241   1.277       .  A
O233        C240   1.276       .  A
O234        C241   1.273       .  A
O235        C242   1.274       .  A
O236        C242   1.274       .  A
C237        C690   1.498       .  S
C238        C564   1.503       .  S
C239        C592   1.506       .  S
C240        C575   1.504       .  S
C241        C648   1.491       .  S
C242        C662   1.516       .  S
N243        C247   1.350       .  A
N243       C2376   1.346   1_455  A
N243        H275   1.040   1_455  S
N244        C251   1.351       .  A
N244        C252   1.348       .  A
N245        C249   1.359   1_655  A
N245       C2378   1.358       .  A
N245        H276   1.037       .  S
N246        C253   1.353       .  A
N246        C254   1.351       .  A
C247        C255   1.389       .  A
C247        C263   1.412       .  A
C248       N2371   1.346       .  A
C248        C264   1.399       .  A
C248        C256   1.383       .  A
C249        C257   1.383       .  A
C249        C266   1.423       .  A
C250       N2373   1.358       .  A
C250        C265   1.432       .  A
C250        C258   1.391       .  A
C251        C263   1.411       .  A
C251        C259   1.382       .  A
C252        C266   1.412       .  A
C252        C260   1.384       .  A
C253        C261   1.382       .  A
C253        C264   1.411       .  A
C254        C262   1.389       .  A
C254        C265   1.422       .  A
C255       C2384   1.374   1_455  A
C255        H267   1.082       .  S
C256       C2383   1.374       .  A
C256        H268   1.082       .  S
C257       C2386   1.368   1_455  A
C257        H269   1.081       .  S
C258       C2385   1.368       .  A
C258        H270   1.076       .  S
C259        C260   1.376       .  A
C259        H271   1.079       .  S
C260        H272   1.079       .  S
C261        C262   1.368       .  A
C261        H273   1.079       .  S
C262        H274   1.082       .  S
C263        C533   1.499       .  S
C264        C505   1.492       .  S
C265        C522   1.509       .  S
C266        C547   1.510       .  S
N277        C282   1.357       .  A
N277        C281   1.357       .  A
N277        H309   1.041       .  S
N278        C285   1.349       .  A
N278        C286   1.351       .  A
N279        C284   1.354       .  A
N279        C283   1.355       .  A
N279        H310   1.042       .  S
N280        C287   1.357       .  A
N280        C288   1.357       .  A
C281        C289   1.389       .  A
C281        C297   1.427       .  A
C282        C298   1.423       .  A
C282        C290   1.386       .  A
C283        C291   1.388       .  A
C283        C300   1.425       .  A
C284        C299   1.421       .  A
C284        C292   1.388       .  A
C285        C297   1.414       .  A
C285        C293   1.387       .  A
C286        C300   1.415       .  A
C286        C294   1.383       .  A
C287        C295   1.385       .  A
C287        C298   1.424       .  A
C288        C296   1.387       .  A
C288        C299   1.426       .  A
C289        C290   1.375       .  A
C289        H301   1.081       .  S
C290        H302   1.082       .  S
C291        C292   1.382       .  A
C291        H303   1.082       .  S
C292        H304   1.081       .  S
C293        C294   1.375       .  A
C293        H305   1.076       .  S
C294        H306   1.082       .  S
C295        C296   1.379       .  A
C295        H307   1.082       .  S
C296        H308   1.082       .  S
C297        C449   1.509       .  S
C298        C477   1.525       .  S
C299        C494   1.516       .  S
C300        C463   1.523       .  S
C311        C914   1.504       .  S
C311        C316   1.399       .  A
C311       C1376   1.420   1_545  A
C312        C631   1.503       .  S
C312        C313   1.410       .  A
C312       C1375   1.420       .  A
C313        C314   1.412       .  A
C313        H318   1.082       .  S
C314        C480   1.529       .  S
C314       C1379   1.433       .  A
C315        C508   1.495       .  S
C315        C316   1.403       .  A
C315       C1378   1.433   1_545  A
C316        H317   1.085       .  S
N319        C323   1.350       .  A
N319       C1388   1.353   1_545  A
N319        H351   1.044       .  S
N320        C327   1.347       .  A
N320        C328   1.347       .  A
N321        C325   1.349   1_565  A
N321       C1390   1.349       .  A
N321        H352   1.042       .  S
N322        C329   1.352       .  A
N322        C330   1.350       .  A
C323        C331   1.385       .  A
C323        C339   1.413       .  A
C324       N1383   1.353       .  A
C324        C340   1.419       .  A
C324        C332   1.388       .  A
C325        C333   1.389       .  A
C325        C342   1.413       .  A
C326       N1385   1.349       .  A
C326        C341   1.405       .  A
C326        C334   1.385       .  A
C327        C339   1.407       .  A
C327        C335   1.384       .  A
C328        C342   1.411       .  A
C328        C336   1.386       .  A
C329        C337   1.390       .  A
C329        C340   1.422       .  A
C330        C338   1.374       .  A
C330        C341   1.408       .  A
C331       C1396   1.385   1_545  A
C331        H343   1.082       .  S
C332       C1395   1.385       .  A
C332        H344   1.082       .  S
C333       C1398   1.377   1_545  A
C333        H345   1.082       .  S
C334       C1397   1.377       .  A
C334        H346   1.082       .  S
C335        C336   1.376       .  A
C335        H347   1.081       .  S
C336        H348   1.081       .  S
C337        C338   1.378       .  A
C337        H349   1.082       .  S
C338        H350   1.072       .  S
C339        C424   1.497       .  S
C340        C396   1.523       .  S
C341        C410   1.498       .  S
C342        C435   1.494       .  S
C353        C589   1.493       .  S
C353        C358   1.406       .  A
C353       C1418   1.410       .  A
C354       C1023   1.497       .  S
C354        C355   1.397       .  A
C354       C1417   1.410   1_545  A
C355        C356   1.408       .  A
C355        H360   1.082       .  S
C356        C519   1.504       .  S
C356       C1421   1.439   1_545  A
C357        C491   1.525       .  S
C357        C358   1.412       .  A
C357       C1420   1.439       .  A
C358        H359   1.084       .  S
C361        C603   1.496       .  S
C361        C362   1.419       .  A
C361        C366   1.402       .  A
C362        C956   1.483       .  S
C362        C363   1.405       .  A
C363        C364   1.394       .  A
C363        H368   1.085       .  S
C364        C421   1.491       .  S
C364        C365   1.411       .  A
C365        C536   1.479       .  S
C365        C366   1.399       .  A
C366        H367   1.085       .  S
C369        C998   1.483       .  S
C369        C370   1.416       .  A
C369        C374   1.397       .  A
C370        C561   1.488       .  S
C370        C371   1.405       .  A
C371        C372   1.399       .  A
C371        H376   1.084       .  S
C372        C550   1.489       .  S
C372        C373   1.411       .  A
C373        C438   1.476       .  S
C373        C374   1.392       .  A
C374        H375   1.085       .  S
C377        C620   1.496       .  S
C377        C382   1.400       .  A
C377       C2506   1.418   1_455  A
C378        C942   1.498       .  S
C378        C379   1.407       .  A
C378       C2505   1.418       .  A
C379        C380   1.408       .  A
C379        H384   1.084       .  S
C380        C452   1.512       .  S
C380       C2509   1.423       .  A
C381        C393   1.488       .  S
C381        C382   1.400       .  A
C381       C2508   1.423   1_455  A
C382        H383   1.085       .  S
C385       C1040   1.500       .  S
C385        C390   1.408       .  A
C385       C2514   1.423       .  A
C386        C578   1.503       .  S
C386        C387   1.407       .  A
C386       C2513   1.423   1_455  A
C387        C388   1.407       .  A
C387        H392   1.084       .  S
C388        C407   1.502       .  S
C388       C2517   1.423   1_455  A
C389        C466   1.510       .  S
C389        C390   1.407       .  A
C389       C2516   1.423       .  A
C390        H391   1.084       .  S
C393        C394   1.405       .  A
C393        C398   1.405       .  A
C394        C395   1.408       .  A
C394       C2527   1.456       .  S
C395        C396   1.428       .  A
C395        C402   1.446       .  S
C396        C397   1.425       .  A
C397        C398   1.415       .  A
C397        C400   1.451       .  S
C398        C401   1.449       .  S
C399       C2522   1.456       .  S
C399        N406   1.157       .  T
C400        N405   1.157       .  T
C401        N403   1.157       .  T
C402       N2532   1.156       .  T
N404       C2530   1.156       .  T
C407        C408   1.414       .  A
C407        C412   1.418       .  A
C408        C409   1.410       .  A
C408        C413   1.450       .  S
C409        C410   1.411       .  A
C409        C416   1.449       .  S
C410        C411   1.410       .  A
C411        C412   1.413       .  A
C411        C414   1.450       .  S
C412        C415   1.451       .  S
C413        N420   1.157   1_455  T
C414        N419   1.157       .  T
C415        N417   1.157       .  T
C416        N418   1.157       .  T
C421        C422   1.413       .  A
C421        C426   1.408       .  A
C422        C423   1.415       .  A
C422        C427   1.449       .  S
C423        C424   1.416       .  A
C423        C430   1.450       .  S
C424        C425   1.411       .  A
C425        C426   1.403       .  A
C425        C428   1.450       .  S
C426        C429   1.448       .  S
C427        N434   1.157       .  T
C428        N433   1.157       .  T
C429        N431   1.157       .  T
C430        N432   1.157       .  T
C435        C436   1.417       .  A
C435        C440   1.415       .  A
C436        C437   1.410       .  A
C436        C441   1.450       .  S
C437        C438   1.409       .  A
C437        C444   1.449       .  S
C438        C439   1.401       .  A
C439        C440   1.397       .  A
C439        C442   1.449       .  S
C440        C443   1.448       .  S
C441        N448   1.157       .  T
C442        N447   1.157       .  T
C443        N445   1.156       .  T
C444        N446   1.157       .  T
C449        C450   1.415       .  A
C449        C454   1.415       .  A
C450        C451   1.417       .  A
C450        C455   1.449       .  S
C451        C452   1.423       .  A
C451        C458   1.451       .  S
C452        C453   1.414       .  A
C453        C454   1.407       .  A
C453        C456   1.445       .  S
C454        C457   1.453       .  S
C455        N462   1.157       .  T
C456        N461   1.157       .  T
C457        N459   1.157       .  T
C458        N460   1.157       .  T
C463        C464   1.426       .  A
C463        C468   1.418       .  A
C464        C465   1.415       .  A
C464        C469   1.449       .  S
C465        C466   1.411       .  A
C465       C2600   1.451       .  S
C466        C467   1.417       .  A
C467        C468   1.413       .  A
C467        C470   1.450       .  S
C468        C471   1.453       .  S
C469        N476   1.158       .  T
C470        N475   1.157       .  T
C471        N473   1.157       .  T
C472       C2593   1.451       .  S
C472        N474   1.157   1_655  T
C477        C478   1.417       .  A
C477        C482   1.415       .  A
C478        C479   1.418       .  A
C478        C483   1.451       .  S
C479        C480   1.428       .  A
C479        C486   1.451       .  S
C480        C481   1.416       .  A
C481        C482   1.412       .  A
C481       C1548   1.446       .  S
C482        C485   1.443       .  S
C483        N490   1.157       .  T
C484       C1545   1.446   1_545  S
C484        N489   1.157       .  T
C485       N1551   1.155       .  T
C486        N488   1.158       .  T
N487       C1549   1.155   1_545  T
C491        C492   1.424       .  A
C491        C496   1.419       .  A
C492        C493   1.416       .  A
C492        C497   1.450       .  S
C493        C494   1.412       .  A
C493        C500   1.452       .  S
C494        C495   1.417       .  A
C495        C496   1.422       .  A
C495        C498   1.450       .  S
C496       C1563   1.449       .  S
C497        N504   1.157       .  T
C498       N1567   1.157       .  T
C499       C1560   1.449   1_545  S
C499        N501   1.157       .  T
C500        N502   1.157       .  T
N503       C1562   1.157   1_545  T
C505        C506   1.407       .  A
C505        C510   1.416       .  A
C506        C507   1.409       .  A
C506        C511   1.451       .  S
C507        C508   1.423       .  A
C507        C514   1.452       .  S
C508        C509   1.409       .  A
C509        C510   1.407       .  A
C509       C1576   1.451       .  S
C510        C513   1.450       .  S
C511        N518   1.157       .  T
C512       C1573   1.451       .  S
C512        N517   1.157       .  T
C513        N515   1.157       .  T
C514        N516   1.157       .  T
C519        C520   1.404       .  A
C519        C524   1.427       .  A
C520        C521   1.402       .  A
C520        C525   1.450       .  S
C521        C522   1.416       .  A
C521        C528   1.438       .  S
C522        C523   1.410       .  A
C523        C524   1.413       .  A
C523        C526   1.452       .  S
C524        C527   1.449       .  S
C525       N1596   1.157   1_545  T
C526        N531   1.157       .  T
C527        N529   1.158       .  T
C528        N530   1.152       .  T
N532       C1589   1.157       .  T
C533        C534   1.416       .  A
C533        C538   1.416       .  A
C534        C535   1.401       .  A
C534        C539   1.447       .  S
C535        C536   1.404       .  A
C535        C542   1.451       .  S
C536        C537   1.408       .  A
C537        C538   1.411       .  A
C537        C540   1.450       .  S
C538        C541   1.448       .  S
C539        N546   1.156       .  T
C540        N545   1.157       .  T
C541        N543   1.156       .  T
C542        N544   1.157       .  T
C547        C548   1.416       .  A
C547        C552   1.420       .  A
C548        C549   1.408       .  A
C548        C553   1.450       .  S
C549        C550   1.408       .  A
C549        C556   1.449       .  S
C550        C551   1.408       .  A
C551        C552   1.411       .  A
C551        C554   1.450       .  S
C552        C555   1.449       .  S
C553        N560   1.157       .  T
C554        N559   1.157       .  T
C555        N557   1.156       .  T
C556        N558   1.157       .  T
C561        C562   1.408       .  A
C561        C566   1.410       .  A
C562        C563   1.412       .  A
C562        C567   1.450       .  S
C563        C564   1.422       .  A
C563        C570   1.451       .  S
C564        C565   1.423       .  A
C565        C566   1.410       .  A
C565        C568   1.453       .  S
C566        C569   1.452       .  S
C567        N574   1.157       .  T
C568        N573   1.158       .  T
C569        N571   1.157       .  T
C570        N572   1.157       .  T
C575        C576   1.416       .  A
C575        C580   1.417       .  A
C576        C577   1.418       .  A
C576        C581   1.451       .  S
C577        C578   1.415       .  A
C577        C584   1.448       .  S
C578        C579   1.416       .  A
C579        C580   1.417       .  A
C579        C582   1.450       .  S
C580        C583   1.451       .  S
C581        N588   1.157       .  T
C582        N587   1.157       .  T
C583        N585   1.158       .  T
C584        N586   1.157       .  T
C589        C590   1.409       .  A
C589        C594   1.412       .  A
C590        C591   1.418       .  A
C590        C595   1.449       .  S
C591        C592   1.424       .  A
C591        C598   1.451       .  S
C592        C593   1.420       .  A
C593        C594   1.410       .  A
C593        C596   1.452       .  S
C594        C597   1.452       .  S
C595        N602   1.157       .  T
C596        N601   1.158       .  T
C597       N1663   1.157       .  T
C598        N600   1.157       .  T
N599       C1661   1.157       .  T
C603        C604   1.414       .  A
C603        C608   1.416       .  A
C604        C605   1.414       .  A
C604        C609   1.448       .  S
C605        C606   1.413       .  A
C605        C612   1.451       .  S
C606        C607   1.413       .  A
C607        C608   1.411       .  A
C607        C610   1.452       .  S
C608        C611   1.452       .  S
C609        N616   1.157       .  T
C610        N615   1.157       .  T
C611        N613   1.157       .  T
C612        N614   1.157       .  T
C617        C618   1.409       .  A
C617        C622   1.413       .  A
C618        C619   1.410       .  A
C618        C623   1.452       .  S
C619        C620   1.414       .  A
C619        C626   1.448       .  S
C620        C621   1.419       .  A
C621        C622   1.413       .  A
C621        C624   1.452       .  S
C622        C625   1.452       .  S
C623        N630   1.157       .  T
C624        N629   1.158       .  T
C625        N627   1.158       .  T
C626       N2756   1.157       .  T
N628       C2754   1.157       .  T
C631        C632   1.417       .  A
C631        C636   1.417       .  A
C632        C633   1.415       .  A
C632        C637   1.449       .  S
C633        C634   1.413       .  A
C633        C640   1.450       .  S
C634        C635   1.416       .  A
C635        C636   1.415       .  A
C635        C638   1.452       .  S
C636        C639   1.451       .  S
C637        N644   1.157       .  T
C638        N643   1.157       .  T
C639        N641   1.157       .  T
C640        N642   1.157       .  T
C645        C646   1.413       .  A
C645        C650   1.415       .  A
C646        C647   1.413       .  A
C646        C651   1.448       .  S
C647        C648   1.413       .  A
C647        C654   1.450       .  S
C648        C649   1.414       .  A
C649        C650   1.413       .  A
C649        C652   1.453       .  S
C650        C653   1.451       .  S
C651        N658   1.157       .  T
C652        N657   1.158       .  T
C653        N655   1.157       .  T
C654        N656   1.157       .  T
C659        C660   1.409       .  A
C659        C664   1.414       .  A
C660        C661   1.416       .  A
C660        C665   1.450       .  S
C661        C662   1.428       .  A
C661        C668   1.452       .  S
C662        C663   1.426       .  A
C663        C664   1.411       .  A
C663        C666   1.453       .  S
C664        C667   1.455       .  S
C665       N1736   1.157       .  T
C666        N671   1.158       .  T
C667        N669   1.157       .  T
C668        N670   1.158       .  T
N672       C1729   1.157       .  T
C673        C674   1.416       .  A
C673        C678   1.419       .  A
C674        C675   1.413       .  A
C674        C679   1.449       .  S
C675        C676   1.413       .  A
C675        C682   1.449       .  S
C676        C677   1.412       .  A
C677        C678   1.414       .  A
C677        C680   1.451       .  S
C678        C681   1.452       .  S
C679        N686   1.157       .  T
C680        N685   1.157       .  T
C681        N683   1.157       .  T
C682        N684   1.157       .  T
C687        C688   1.416       .  A
C687        C692   1.418       .  A
C688        C689   1.418       .  A
C688        C693   1.447       .  S
C689        C690   1.414       .  A
C689        C696   1.451       .  S
C690        C691   1.413       .  A
C691        C692   1.417       .  A
C691        C694   1.451       .  S
C692        C695   1.450       .  S
C693        N700   1.157       .  T
C694        N699   1.157       .  T
C695        N697   1.157       .  T
C696        N698   1.157       .  T
C701        C702   1.420       .  A
C701        C706   1.420       .  A
C702        C703   1.411       .  A
C702        C707   1.453       .  S
C703        C704   1.414       .  A
C703        C710   1.451       .  S
C704        C705   1.415       .  A
C705        C706   1.418       .  A
C705        C708   1.450       .  S
C706        C709   1.451       .  S
C707        N714   1.157       .  T
C708       N1777   1.157       .  T
C709        N711   1.158       .  T
C710        N712   1.157       .  T
N713       C1772   1.157       .  T
C715        C716   1.420       .  A
C715        C720   1.422       .  A
C716        C717   1.416       .  A
C716        C721   1.452       .  S
C717        C718   1.412       .  A
C717        C724   1.448       .  S
C718        C719   1.413       .  A
C719        C720   1.416       .  A
C719        C722   1.452       .  S
C720        C723   1.452       .  S
C721        N728   1.157       .  T
C722        N727   1.157       .  T
C723        N725   1.158       .  T
C724        N726   1.157       .  T
C729        C730   1.410       .  A
C729        C734   1.412       .  A
C730        C731   1.419       .  A
C730        C735   1.449       .  S
C731        C732   1.426       .  A
C731        C738   1.450       .  S
C732        C733   1.414       .  A
C733        C734   1.407       .  A
C733        C736   1.445       .  S
C734        C737   1.452       .  S
C735        N742   1.157       .  T
C736        N741   1.157       .  T
C737        N739   1.157       .  T
C738        N740   1.157       .  T
C743        C744   1.414       .  A
C743        C748   1.416       .  A
C744        C745   1.416       .  A
C744        C749   1.448       .  S
C745        C746   1.419       .  A
C745        C752   1.449       .  S
C746        C747   1.405       .  A
C747        C748   1.398       .  A
C747        C750   1.446       .  S
C748        C751   1.451       .  S
C749        N756   1.157       .  T
C750        N755   1.157       .  T
C751        N753   1.157       .  T
C752        N754   1.157       .  T
C757        C758   1.412       .  A
C757        C762   1.411       .  A
C758        C759   1.408       .  A
C758        C763   1.453       .  S
C759        C760   1.418       .  A
C759        C766   1.446       .  S
C760        C761   1.425       .  A
C761        C762   1.414       .  A
C761        C764   1.449       .  S
C762        C765   1.450       .  S
C763        N770   1.157       .  T
C764        N769   1.158       .  T
C765       N1831   1.157       .  T
C766        N768   1.155       .  T
N767       C1829   1.157   1_545  T
C771        C772   1.421       .  A
C771        C776   1.416       .  A
C772        C773   1.408       .  A
C772        C777   1.451       .  S
C773        C774   1.409       .  A
C773        C780   1.448       .  S
C774        C775   1.418       .  A
C775        C776   1.415       .  A
C775        C778   1.449       .  S
C776        C779   1.449       .  S
C777        N784   1.157       .  T
C778        N783   1.157       .  T
C779        N781   1.157       .  T
C780        N782   1.156       .  T
C785        C786   1.407       .  A
C785        C790   1.414       .  A
C786        C787   1.411       .  A
C786        C791   1.451       .  S
C787        C788   1.422       .  A
C787        C794   1.451       .  S
C788        C789   1.413       .  A
C789        C790   1.414       .  A
C789       C2920   1.450   1_455  S
C790        C793   1.449       .  S
C791        N798   1.157       .  T
C792       C2917   1.450       .  S
C792        N797   1.157       .  T
C793        N795   1.157       .  T
C794        N796   1.157       .  T
C799        C800   1.418       .  A
C799        C804   1.423       .  A
C800        C801   1.406       .  A
C800        C805   1.450       .  S
C801        C802   1.408       .  A
C801        C808   1.451       .  S
C802        C803   1.410       .  A
C803        C804   1.417       .  A
C803        C806   1.450       .  S
C804        C807   1.450       .  S
C805        N812   1.157       .  T
C806        N811   1.157       .  T
C807        N809   1.158       .  T
C808        N810   1.157       .  T
C813        C814   1.411       .  A
C813        C818   1.410       .  A
C814        C815   1.412       .  A
C814        C819   1.451       .  S
C815        C816   1.417       .  A
C815        C822   1.451       .  S
C816        C817   1.415       .  A
C817        C818   1.410       .  A
C817       C1884   1.449       .  S
C818        C821   1.450       .  S
C819        N826   1.157       .  T
C820       C1881   1.449       .  S
C820        N825   1.157       .  T
C821        N823   1.157       .  T
C822        N824   1.157       .  T
C827        C828   1.421       .  A
C827        C832   1.423       .  A
C828        C829   1.404       .  A
C828        C833   1.450       .  S
C829        C830   1.404       .  A
C829        C836   1.450       .  S
C830        C831   1.410       .  A
C831        C832   1.419       .  A
C831        C834   1.449       .  S
C832        C835   1.450       .  S
C833        N840   1.157       .  T
C834        N839   1.157       .  T
C835        N837   1.157       .  T
C836        N838   1.157       .  T
C841        C842   1.412       .  A
C841        C846   1.408       .  A
C842        C843   1.402       .  A
C842        C847   1.448       .  S
C843        C844   1.409       .  A
C843       C2978   1.445       .  S
C844        C845   1.432       .  A
C845        C846   1.413       .  A
C845        C848   1.449       .  S
C846        C849   1.450       .  S
C847       N2982   1.157       .  T
C848        N853   1.157       .  T
C849        N851   1.157       .  T
C850       C2971   1.445       .  S
C850        N852   1.157   1_655  T
N854       C2975   1.157       .  T
C855        C856   1.423       .  A
C855        C860   1.418       .  A
C856        C857   1.418       .  A
C856        C861   1.450       .  S
C857        C858   1.410       .  A
C857        C864   1.450       .  S
C858        C859   1.409       .  A
C859        C860   1.407       .  A
C859        C862   1.451       .  S
C860        C863   1.452       .  S
C861        N868   1.157       .  T
C862        N867   1.157       .  T
C863        N865   1.157       .  T
C864        N866   1.157       .  T
C869        C870   1.416       .  A
C869        C874   1.418       .  A
C870        C871   1.415       .  A
C870        C875   1.450       .  S
C871        C872   1.416       .  A
C871        C878   1.450       .  S
C872        C873   1.407       .  A
C873        C874   1.402       .  A
C873       C3004   1.447       .  S
C874        C877   1.450       .  S
C875        N882   1.157       .  T
C876       C3001   1.447       .  S
C876        N881   1.157       .  T
C877       N3007   1.156       .  T
C878        N880   1.157       .  T
N879       C3005   1.156       .  T
C883        C884   1.408       .  A
C883        C888   1.412       .  A
C884        C885   1.407       .  A
C884        C889   1.451       .  S
C885        C886   1.418       .  A
C885        C892   1.453       .  S
C886        C887   1.412       .  A
C887        C888   1.408       .  A
C887        C890   1.450       .  S
C888        C891   1.449       .  S
C889        N896   1.157       .  T
C890        N895   1.157       .  T
C891        N893   1.157       .  T
C892        N894   1.157       .  T
C897        C898   1.411       .  A
C897        C902   1.413       .  A
C898        C899   1.414       .  A
C898        C903   1.451       .  S
C899        C900   1.419       .  A
C899        C906   1.452       .  S
C900        C901   1.416       .  A
C901        C902   1.408       .  A
C901        C904   1.451       .  S
C902        C905   1.452       .  S
C903        N910   1.157       .  T
C904        N909   1.157       .  T
C905       N3035   1.157       .  T
C906        N908   1.158       .  T
N907       C3033   1.157       .  T
C911        C912   1.411       .  A
C911        C916   1.410       .  A
C912        C913   1.413       .  A
C912        C917   1.452       .  S
C913        C914   1.417       .  A
C913        C920   1.448       .  S
C914        C915   1.421       .  A
C915        C916   1.414       .  A
C915        C918   1.451       .  S
C916        C919   1.451       .  S
C917        N924   1.157       .  T
C918        N923   1.157       .  T
C919        N921   1.157       .  T
C920       N1986   1.157       .  T
N922       C1984   1.157       .  T
C925        C926   1.425       .  A
C925        C930   1.424       .  A
C926        C927   1.415       .  A
C926        C931   1.452       .  S
C927        C928   1.414       .  A
C927        C934   1.453       .  S
C928        C929   1.410       .  A
C929        C930   1.412       .  A
C929        C932   1.450       .  S
C930        C933   1.453       .  S
C931        N938   1.158       .  T
C932        N937   1.157       .  T
C933        N935   1.158       .  T
C934       N2000   1.157       .  T
N936       C1998   1.157       .  T
C939        C940   1.413       .  A
C939        C944   1.411       .  A
C940        C941   1.413       .  A
C940        C945   1.452       .  S
C941        C942   1.415       .  A
C941        C948   1.449       .  S
C942        C943   1.417       .  A
C943        C944   1.411       .  A
C943        C946   1.452       .  S
C944        C947   1.449       .  S
C945        N952   1.157       .  T
C946       N3079   1.157       .  T
C947        N949   1.156       .  T
C948        N950   1.157       .  T
N951       C3074   1.157       .  T
C953        C954   1.410       .  A
C953        C958   1.412       .  A
C954        C955   1.406       .  A
C954        C959   1.452       .  S
C955        C956   1.414       .  A
C955        C962   1.452       .  S
C956        C957   1.412       .  A
C957        C958   1.412       .  A
C957        C960   1.450       .  S
C958        C961   1.451       .  S
C959        N966   1.157       .  T
C960        N965   1.157       .  T
C961        N963   1.157       .  T
C962        N964   1.157       .  T
C967        C968   1.412       .  A
C967        C972   1.420       .  A
C968        C969   1.406       .  A
C968        C973   1.449       .  S
C969        C970   1.412       .  A
C969        C976   1.450       .  S
C970        C971   1.411       .  A
C971        C972   1.412       .  A
C971        C974   1.451       .  S
C972        C975   1.453       .  S
C973        N980   1.156       .  T
C974        N979   1.157       .  T
C975        N977   1.158       .  T
C976        N978   1.157       .  T
C981        C982   1.412       .  A
C981        C986   1.412       .  A
C982        C983   1.414       .  A
C982        C987   1.451       .  S
C983        C984   1.418       .  A
C983        C990   1.452       .  S
C984        C985   1.414       .  A
C985        C986   1.416       .  A
C985        C988   1.448       .  S
C986        C989   1.448       .  S
C987        N994   1.157       .  T
C988        N993   1.157       .  T
C989        N991   1.156       .  T
C990        N992   1.157       .  T
C995        C996   1.414       .  A
C995       C1000   1.412       .  A
C996        C997   1.410       .  A
C996       C1001   1.451       .  S
C997        C998   1.410       .  A
C997       C1004   1.450       .  S
C998        C999   1.412       .  A
C999       C1000   1.407       .  A
C999       C1002   1.452       .  S
C1000      C1003   1.449       .  S
C1001      N1008   1.157       .  T
C1002      N1007   1.157       .  T
C1003      N1005   1.156       .  T
C1004      N1006   1.157       .  T
C1009      C1010   1.424       .  A
C1009      C1014   1.418       .  A
C1010      C1011   1.415       .  A
C1010      C1015   1.453       .  S
C1011      C1012   1.409       .  A
C1011      C1018   1.450       .  S
C1012      C1013   1.414       .  A
C1013      C1014   1.411       .  A
C1013      C1016   1.452       .  S
C1014      C1017   1.452       .  S
C1015      N1022   1.158       .  T
C1016      N1021   1.157       .  T
C1017      N1019   1.157       .  T
C1018      N3148   1.157       .  T
N1020      C3146   1.157       .  T
C1023      C1024   1.416       .  A
C1023      C1028   1.413       .  A
C1024      C1025   1.412       .  A
C1024      C1029   1.451       .  S
C1025      C1026   1.412       .  A
C1025      C1032   1.452       .  S
C1026      C1027   1.416       .  A
C1027      C1028   1.417       .  A
C1027      C1030   1.451       .  S
C1028      C1031   1.449       .  S
C1029      N2100   1.157       .  T
C1030      N1035   1.158       .  T
C1031      N1033   1.157       .  T
C1032      N1034   1.157       .  T
N1036      C2093   1.157       .  T
C1037      C1038   1.413       .  A
C1037      C1042   1.415       .  A
C1038      C1039   1.415       .  A
C1038      C1043   1.451       .  S
C1039      C1040   1.417       .  A
C1039      C1046   1.450       .  S
C1040      C1041   1.415       .  A
C1041      C1042   1.417       .  A
C1041      C1044   1.448       .  S
C1042      C1045   1.452       .  S
C1043      N1050   1.157       .  T
C1044      N1049   1.157       .  T
C1045      N1047   1.158       .  T
C1046      N1048   1.157       .  T
C1051      C1052   1.424       .  A
C1051      C1056   1.425       .  A
C1052      C1053   1.416       .  A
C1052      C1057   1.452       .  S
C1053      C1054   1.411       .  A
C1053      C1060   1.451       .  S
C1054      C1055   1.410       .  A
C1055      C1056   1.413       .  A
C1055      C1058   1.453       .  S
C1056      C1059   1.451       .  S
C1057      N1064   1.158       .  T
C1058      N1063   1.157       .  T
C1059      N1061   1.157       .  T
C1060      N1062   1.157       .  T
Zn1065     O1069   1.959   1_554  S
Zn1065     O1070   2.009       .  S
Zn1065     O1074   2.039       .  S
Zn1065     O1081   2.020       .  S
Zn1066     O1069   1.973       .  S
Zn1066     O1071   2.041       .  S
Zn1066     O1073   2.024   1_556  S
Zn1066     O1077   2.060       .  S
Zn1067     O1069   1.964       .  S
Zn1067     O1072   2.032   1_556  S
Zn1067     O1075   2.016       .  S
Zn1067     O1078   2.001       .  S
Zn1068     O1069   1.963       .  S
Zn1068     O1076   2.034       .  S
Zn1068     O1079   2.028       .  S
Zn1068     O1080   2.046   1_556  S
O1070      C1082   1.274       .  A
O1071      C1083   1.277       .  A
O1072      C1084   1.274       .  A
O1073      C1082   1.275       .  A
O1074      C1084   1.275       .  A
O1075      C1083   1.274       .  A
O1076      C1085   1.277       .  A
O1077      C1086   1.278       .  A
O1078      C1085   1.271       .  A
O1079      C1086   1.274       .  A
O1080      C1087   1.278       .  A
O1081      C1087   1.273       .  A
C1082      C2059   1.484       .  S
C1083      C2115   1.511       .  S
C1084      C2101   1.497       .  S
C1085      C2073   1.502       .  S
C1086      C2045   1.493       .  S
C1087      C2090   1.492       .  S
Zn1088     O1092   1.952       .  S
Zn1088     O1093   2.019       .  S
Zn1088     O1097   2.020       .  S
Zn1088     O1104   2.029       .  S
Zn1089     O1092   1.964       .  S
Zn1089     O1094   2.028       .  S
Zn1089     O1096   2.037       .  S
Zn1089     O1100   2.019       .  S
Zn1090     O1092   1.959       .  S
Zn1090     O1095   1.996       .  S
Zn1090     O1098   1.994       .  S
Zn1090     O1101   2.017       .  S
Zn1091     O1092   1.953       .  S
Zn1091     O1099   2.017       .  S
Zn1091     O1102   2.021       .  S
Zn1091     O1103   2.026       .  S
O1093      C1105   1.274       .  A
O1094      C1106   1.276       .  A
O1095      C1107   1.271       .  A
O1096      C1105   1.276       .  A
O1097      C1107   1.274       .  A
O1098      C1106   1.270       .  A
O1099      C1108   1.273       .  A
O1100      C1109   1.274       .  A
O1101      C1108   1.272       .  A
O1102      C1109   1.276       .  A
O1103      C1110   1.274       .  A
O1104      C1110   1.275       .  A
C1105      C2003   1.489       .  S
C1106      C2031   1.490       .  S
C1107      C2017   1.477       .  S
C1108      C1989   1.511       .  S
C1109      C1964   1.496       .  S
C1110      C1975   1.489       .  S
N1111      C1116   1.358   1_545  A
N1111      H1143   1.039       .  S
N1112      C1119   1.352       .  A
N1112      C1120   1.357       .  A
N1113      C1118   1.350   1_545  A
N1113      H1144   1.039       .  S
N1114      C1121   1.350       .  A
N1114      C1122   1.348       .  A
C1115      C1123   1.389       .  A
C1115      C1131   1.422       .  A
C1116      C1132   1.422       .  A
C1116      C1124   1.383       .  A
C1117      C1125   1.386       .  A
C1117      C1134   1.410       .  A
C1118      C1133   1.410       .  A
C1118      C1126   1.387       .  A
C1119      C1131   1.425       .  A
C1119      C1127   1.390       .  A
C1120      C1134   1.415       .  A
C1120      C1128   1.383       .  A
C1121      C1129   1.383       .  A
C1121      C1132   1.411       .  A
C1122      C1130   1.382       .  A
C1122      C1133   1.408       .  A
C1123      H1135   1.075       .  S
C1124      H1136   1.082       .  S
C1125      H1137   1.082       .  S
C1126      H1138   1.082       .  S
C1127      C1128   1.366       .  A
C1127      H1139   1.081       .  S
C1128      H1140   1.080       .  S
C1129      C1130   1.377       .  A
C1129      H1141   1.081       .  S
C1130      H1142   1.079       .  S
C1131      C1905   1.504       .  S
C1132      C1919   1.517       .  S
C1133      C1947   1.488       .  S
C1134      C1933   1.506       .  S
N1145      C1150   1.354       .  A
N1145      C1149   1.349       .  A
N1145      H1177   1.042       .  S
N1146      C1153   1.350       .  A
N1146      C1154   1.355       .  A
N1147      C1152   1.351       .  A
N1147      C1151   1.352       .  A
N1147      H1178   1.042       .  S
N1148      C1155   1.351       .  A
N1148      C1156   1.346       .  A
C1149      C1157   1.385       .  A
C1149      C1165   1.409       .  A
C1150      C1166   1.419       .  A
C1150      C1158   1.389       .  A
C1151      C1159   1.389       .  A
C1151      C1168   1.419       .  A
C1152      C1167   1.411       .  A
C1152      C1160   1.386       .  A
C1153      C1165   1.415       .  A
C1153      C1161   1.382       .  A
C1154      C1168   1.419       .  A
C1154      C1162   1.386       .  A
C1155      C1163   1.385       .  A
C1155      C1166   1.412       .  A
C1156      C1164   1.381       .  A
C1156      C1167   1.407       .  A
C1157      C1158   1.380       .  A
C1157      H1169   1.082       .  S
C1158      H1170   1.082       .  S
C1159      C1160   1.381       .  A
C1159      H1171   1.082       .  S
C1160      H1172   1.082       .  S
C1161      C1162   1.376       .  A
C1161      H1173   1.077       .  S
C1162      H1174   1.082       .  S
C1163      C1164   1.380       .  A
C1163      H1175   1.082       .  S
C1164      H1176   1.078       .  S
C1165      C1849   1.496       .  S
C1166      C1863   1.515       .  S
C1167      C1877   1.493       .  S
C1168      C1891   1.516       .  S
N1179      C1184   1.358       .  A
N1179      C3311   1.354       .  A
N1179      H1211   1.038       .  S
N1180      C1187   1.350       .  A
N1180      C1188   1.354       .  A
N1181      C1186   1.354       .  A
N1181      C3313   1.355       .  A
N1181      H1212   1.042       .  S
N1182      C1189   1.348       .  A
N1182      C1190   1.349       .  A
C1183      N3307   1.354       .  A
C1183      C1191   1.390       .  A
C1183      C1199   1.425       .  A
C1184      C1200   1.420       .  A
C1184      C1192   1.385       .  A
C1185      N3309   1.355       .  A
C1185      C1193   1.388       .  A
C1185      C1202   1.423       .  A
C1186      C1201   1.422       .  A
C1186      C1194   1.388       .  A
C1187      C1199   1.414       .  A
C1187      C1195   1.387       .  A
C1188      C1202   1.416       .  A
C1188      C1196   1.383       .  A
C1189      C1197   1.383       .  A
C1189      C1200   1.406       .  A
C1190      C1198   1.387       .  A
C1190      C1201   1.414       .  A
C1191      C3320   1.372   1_455  A
C1191      H1203   1.082       .  S
C1192      C3319   1.372       .  A
C1192      H1204   1.082       .  S
C1193      C3322   1.382   1_455  A
C1193      H1205   1.083       .  S
C1194      C3321   1.383       .  A
C1194      H1206   1.082       .  S
C1195      C1196   1.373       .  A
C1195      H1207   1.077       .  S
C1196      H1208   1.082       .  S
C1197      C1198   1.375       .  A
C1197      H1209   1.079       .  S
C1198      H1210   1.082       .  S
C1199      C1807   1.501       .  S
C1200      C1793   1.505       .  S
C1201      C1838   1.510       .  S
C1202      C1824   1.520       .  S
C1213      C1782   1.500       .  S
C1213      C3342   1.420   1_455  A
C1213      C1218   1.408       .  A
C1214      C1961   1.489       .  S
C1214      C3341   1.420       .  A
C1214      C1215   1.399       .  A
C1215      C1216   1.396       .  A
C1215      H1220   1.085       .  S
C1216      C1936   1.494       .  S
C1216      C3345   1.419       .  A
C1217      C1894   1.493       .  S
C1217      C3344   1.419   1_455  A
C1217      C1218   1.405       .  A
C1218      H1219   1.084       .  S
C1221      C1992   1.498       .  S
C1221      C1226   1.408       .  A
C1222      C1768   1.501       .  S
C1222      C1223   1.403       .  A
C1223      C1224   1.404       .  A
C1223      H1228   1.084       .  S
C1224      C1821   1.500       .  S
C1225      C1880   1.499       .  S
C1225      C1226   1.404       .  A
C1226      H1227   1.084       .  S
C1229      C2118   1.493       .  S
C1229      C1230   1.419       .  A
C1229      C1234   1.405       .  A
C1230      C1751   1.509       .  S
C1230      C1231   1.410       .  A
C1231      C1232   1.412       .  A
C1231      H1236   1.084       .  S
C1232      C1922   1.495       .  S
C1232      C1233   1.423       .  A
C1233      C1796   1.513       .  S
C1233      C1234   1.404       .  A
C1234      H1235   1.085       .  S
C1237      C2034   1.486       .  S
C1237      C1238   1.413       .  A
C1237      C1242   1.401       .  A
C1238      C1740   1.497       .  S
C1238      C1239   1.398       .  A
C1239      C1240   1.406       .  A
C1239      H1244   1.085       .  S
C1240      C1950   1.490       .  S
C1240      C1241   1.424       .  A
C1241      C1835   1.509       .  S
C1241      C1242   1.404       .  A
C1242      H1243   1.085       .  S
C1245      C2048   1.502       .  S
C1245      C1250   1.408       .  A
C1246      C1723   1.497       .  S
C1246      C1247   1.405       .  A
C1247      C1248   1.398       .  A
C1247      H1252   1.085       .  S
C1248      C1810   1.498       .  S
C1249      C1866   1.493       .  S
C1249      C1250   1.404       .  A
C1250      H1251   1.084       .  S
C1253      C2076   1.491       .  S
C1253      C3382   1.411       .  A
C1253      C1258   1.398       .  A
C1254      C1709   1.493       .  S
C1254      C3381   1.411   1_455  A
C1254      C1255   1.399       .  A
C1255      C1256   1.407       .  A
C1255      H1260   1.085       .  S
C1256      C1852   1.502       .  S
C1256      C3385   1.437   1_455  A
C1257      C1908   1.517       .  S
C1257      C3384   1.437       .  A
C1257      C1258   1.407       .  A
C1258      H1259   1.083       .  S
Zn1261     O1265   1.970       .  S
Zn1261     O1266   2.053       .  S
Zn1261     O1270   2.027       .  S
Zn1261     O1277   2.044       .  S
Zn1262     O1265   1.967       .  S
Zn1262     O1267   2.031       .  S
Zn1262     O1269   2.024       .  S
Zn1262     O1273   2.044       .  S
Zn1263     O1265   1.969       .  S
Zn1263     O1268   2.027       .  S
Zn1263     O1271   2.012       .  S
Zn1263     O1274   2.039       .  S
Zn1264     O1265   1.950       .  S
Zn1264     O1272   2.029       .  S
Zn1264     O1275   2.014       .  S
Zn1264     O1276   2.025       .  S
O1266      C1278   1.278       .  A
O1267      C1279   1.277       .  A
O1268      C1280   1.276       .  A
O1269      C1278   1.274       .  A
O1270      C1280   1.276       .  A
O1271      C1279   1.272       .  A
O1272      C1281   1.274       .  A
O1273      C1282   1.276       .  A
O1274      C1281   1.276       .  A
O1275      C1282   1.275       .  A
O1276      C1283   1.276       .  A
O1277      C1283   1.277       .  A
C1278      C1698   1.498       .  S
C1279      C1681   1.485       .  S
C1280      C1670   1.489       .  S
C1281      C1779   1.509       .  S
C1282      C1765   1.505       .  S
C1283      C1737   1.502       .  S
Zn1284     O1288   1.972   1_556  S
Zn1284     O1289   2.042       .  S
Zn1284     O1293   2.023   1_556  S
Zn1284     O1300   2.022       .  S
Zn1285     O1288   1.977   1_556  S
Zn1285     O1290   2.032   1_556  S
Zn1285     O1292   2.051       .  S
Zn1285     O1296   2.043       .  S
Zn1286     O1288   1.957       .  S
Zn1286     O1291   2.036       .  S
Zn1286     O1294   2.004       .  S
Zn1286     O1297   2.047       .  S
Zn1287     O1288   1.962   1_556  S
Zn1287     O1295   2.037   1_556  S
Zn1287     O1298   2.010       .  S
Zn1287     O1299   2.016       .  S
O1289      C1301   1.276       .  A
O1290      C1302   1.275       .  A
O1291      C1303   1.277       .  A
O1292      C1301   1.277       .  A
O1293      C1303   1.273       .  A
O1294      C1302   1.273       .  A
O1295      C1304   1.274       .  A
O1296      C1305   1.277       .  A
O1297      C1304   1.276       .  A
O1298      C1305   1.273       .  A
O1299      C1306   1.274       .  A
O1300      C1306   1.273       .  A
C1301      C1754   1.499       .  S
C1302      C1628   1.503       .  S
C1303      C1656   1.506       .  S
C1304      C1639   1.504       .  S
C1305      C1712   1.490       .  S
C1306      C1726   1.515       .  S
N1307      C3440   1.346   1_455  A
N1307      C1311   1.350       .  A
N1307      H1339   1.040   1_455  S
N1308      C1315   1.351       .  A
N1308      C1316   1.347       .  A
N1309      C3442   1.358       .  A
N1309      C1313   1.359   1_655  A
N1309      H1340   1.037       .  S
N1310      C1317   1.353       .  A
N1310      C1318   1.351       .  A
C1311      C1319   1.389       .  A
C1311      C1327   1.411       .  A
C1312      N3435   1.346       .  A
C1312      C1328   1.399       .  A
C1312      C1320   1.383       .  A
C1313      C1321   1.383       .  A
C1313      C1330   1.423       .  A
C1314      N3437   1.358       .  A
C1314      C1329   1.432       .  A
C1314      C1322   1.391       .  A
C1315      C1327   1.411       .  A
C1315      C1323   1.382       .  A
C1316      C1330   1.412       .  A
C1316      C1324   1.384       .  A
C1317      C1325   1.382       .  A
C1317      C1328   1.411       .  A
C1318      C1326   1.389       .  A
C1318      C1329   1.421       .  A
C1319      C3448   1.374   1_455  A
C1319      H1331   1.082       .  S
C1320      C3447   1.374       .  A
C1320      H1332   1.082       .  S
C1321      C3450   1.368   1_455  A
C1321      H1333   1.081       .  S
C1322      C3449   1.368       .  A
C1322      H1334   1.076       .  S
C1323      C1324   1.376       .  A
C1323      H1335   1.079       .  S
C1324      H1336   1.079       .  S
C1325      C1326   1.368       .  A
C1325      H1337   1.079       .  S
C1326      H1338   1.082       .  S
C1327      C1597   1.499       .  S
C1328      C1569   1.492       .  S
C1329      C1586   1.509       .  S
C1330      C1611   1.509       .  S
N1341      C1346   1.356       .  A
N1341      C1345   1.357       .  A
N1341      H1373   1.041       .  S
N1342      C1349   1.349       .  A
N1342      C1350   1.351       .  A
N1343      C1348   1.354       .  A
N1343      C1347   1.355       .  A
N1343      H1374   1.042       .  S
N1344      C1351   1.357       .  A
N1344      C1352   1.357       .  A
C1345      C1353   1.389       .  A
C1345      C1361   1.427       .  A
C1346      C1362   1.422       .  A
C1346      C1354   1.386       .  A
C1347      C1355   1.388       .  A
C1347      C1364   1.425       .  A
C1348      C1363   1.421       .  A
C1348      C1356   1.388       .  A
C1349      C1361   1.413       .  A
C1349      C1357   1.387       .  A
C1350      C1364   1.415       .  A
C1350      C1358   1.383       .  A
C1351      C1359   1.385       .  A
C1351      C1362   1.424       .  A
C1352      C1360   1.387       .  A
C1352      C1363   1.426       .  A
C1353      C1354   1.375       .  A
C1353      H1365   1.081       .  S
C1354      H1366   1.082       .  S
C1355      C1356   1.382       .  A
C1355      H1367   1.082       .  S
C1356      H1368   1.081       .  S
C1357      C1358   1.375       .  A
C1357      H1369   1.076       .  S
C1358      H1370   1.082       .  S
C1359      C1360   1.379       .  A
C1359      H1371   1.082       .  S
C1360      H1372   1.082       .  S
C1361      C1513   1.508       .  S
C1362      C1541   1.525       .  S
C1363      C1558   1.517       .  S
C1364      C1527   1.522       .  S
C1375      C1978   1.504       .  S
C1375      C1380   1.398       .  A
C1376      C1695   1.503       .  S
C1376      C1377   1.410       .  A
C1377      C1378   1.412       .  A
C1377      H1382   1.082       .  S
C1378      C1544   1.529       .  S
C1379      C1572   1.495       .  S
C1379      C1380   1.403       .  A
C1380      H1381   1.085       .  S
N1383      C1387   1.350       .  A
N1383      H1415   1.044       .  S
N1384      C1391   1.347       .  A
N1384      C1392   1.347       .  A
N1385      C1389   1.349       .  A
N1385      H1416   1.042       .  S
N1386      C1393   1.352       .  A
N1386      C1394   1.350       .  A
C1387      C1395   1.385       .  A
C1387      C1403   1.413       .  A
C1388      C1404   1.419       .  A
C1388      C1396   1.388       .  A
C1389      C1397   1.389       .  A
C1389      C1406   1.413       .  A
C1390      C1405   1.405       .  A
C1390      C1398   1.385       .  A
C1391      C1403   1.407       .  A
C1391      C1399   1.384       .  A
C1392      C1406   1.411       .  A
C1392      C1400   1.386       .  A
C1393      C1401   1.390       .  A
C1393      C1404   1.422       .  A
C1394      C1402   1.374       .  A
C1394      C1405   1.408       .  A
C1395      H1407   1.082       .  S
C1396      H1408   1.082       .  S
C1397      H1409   1.082       .  S
C1398      H1410   1.082       .  S
C1399      C1400   1.376       .  A
C1399      H1411   1.081       .  S
C1400      H1412   1.081       .  S
C1401      C1402   1.378       .  A
C1401      H1413   1.082       .  S
C1402      H1414   1.073       .  S
C1403      C1488   1.497       .  S
C1404      C1460   1.523       .  S
C1405      C1474   1.497       .  S
C1406      C1499   1.495       .  S
C1417      C1653   1.493       .  S
C1417      C1422   1.407       .  A
C1418      C2087   1.497       .  S
C1418      C1419   1.397       .  A
C1419      C1420   1.408       .  A
C1419      H1424   1.082       .  S
C1420      C1583   1.504       .  S
C1421      C1555   1.526       .  S
C1421      C1422   1.412       .  A
C1422      H1423   1.084       .  S
C1425      C1667   1.496       .  S
C1425      C1426   1.419       .  A
C1425      C1430   1.402       .  A
C1426      C2020   1.483       .  S
C1426      C1427   1.405       .  A
C1427      C1428   1.394       .  A
C1427      H1432   1.085       .  S
C1428      C1485   1.491       .  S
C1428      C1429   1.411       .  A
C1429      C1600   1.479       .  S
C1429      C1430   1.399       .  A
C1430      H1431   1.085       .  S
C1433      C2062   1.483       .  S
C1433      C1434   1.416       .  A
C1433      C1438   1.397       .  A
C1434      C1625   1.488       .  S
C1434      C1435   1.404       .  A
C1435      C1436   1.399       .  A
C1435      H1440   1.084       .  S
C1436      C1614   1.489       .  S
C1436      C1437   1.411       .  A
C1437      C1502   1.476       .  S
C1437      C1438   1.392       .  A
C1438      H1439   1.085       .  S
C1441      C1684   1.497       .  S
C1441      C3570   1.418   1_455  A
C1441      C1446   1.400       .  A
C1442      C2006   1.498       .  S
C1442      C3569   1.418       .  A
C1442      C1443   1.406       .  A
C1443      C1444   1.408       .  A
C1443      H1448   1.084       .  S
C1444      C1516   1.511       .  S
C1444      C3573   1.423       .  A
C1445      C1457   1.487       .  S
C1445      C3572   1.423   1_455  A
C1445      C1446   1.400       .  A
C1446      H1447   1.085       .  S
C1449      C2104   1.500       .  S
C1449      C3578   1.423       .  A
C1449      C1454   1.407       .  A
C1450      C1642   1.503       .  S
C1450      C3577   1.423   1_455  A
C1450      C1451   1.406       .  A
C1451      C1452   1.407       .  A
C1451      H1456   1.085       .  S
C1452      C1471   1.502       .  S
C1452      C3581   1.423   1_455  A
C1453      C1530   1.509       .  S
C1453      C3580   1.423       .  A
C1453      C1454   1.406       .  A
C1454      H1455   1.084       .  S
C1457      C1458   1.405       .  A
C1457      C1462   1.405       .  A
C1458      C1459   1.408       .  A
C1458      C3591   1.456       .  S
C1459      C1460   1.428       .  A
C1459      C1466   1.445       .  S
C1460      C1461   1.425       .  A
C1461      C1462   1.414       .  A
C1461      C1464   1.451       .  S
C1462      C1465   1.449       .  S
C1463      C3586   1.456       .  S
C1463      N1470   1.157       .  T
C1464      N1469   1.157       .  T
C1465      N1467   1.157       .  T
C1466      N3596   1.156       .  T
N1468      C3594   1.156       .  T
C1471      C1472   1.414       .  A
C1471      C1476   1.419       .  A
C1472      C1473   1.410       .  A
C1472      C1477   1.450       .  S
C1473      C1474   1.411       .  A
C1473      C1480   1.449       .  S
C1474      C1475   1.410       .  A
C1475      C1476   1.413       .  A
C1475      C1478   1.450       .  S
C1476      C1479   1.451       .  S
C1477      N1484   1.157   1_455  T
C1478      N1483   1.157       .  T
C1479      N1481   1.157       .  T
C1480      N1482   1.157       .  T
C1485      C1486   1.413       .  A
C1485      C1490   1.408       .  A
C1486      C1487   1.415       .  A
C1486      C1491   1.449       .  S
C1487      C1488   1.416       .  A
C1487      C1494   1.450       .  S
C1488      C1489   1.412       .  A
C1489      C1490   1.403       .  A
C1489      C1492   1.450       .  S
C1490      C1493   1.448       .  S
C1491      N1498   1.157       .  T
C1492      N1497   1.157       .  T
C1493      N1495   1.157       .  T
C1494      N1496   1.157       .  T
C1499      C1500   1.417       .  A
C1499      C1504   1.416       .  A
C1500      C1501   1.410       .  A
C1500      C1505   1.450       .  S
C1501      C1502   1.409       .  A
C1501      C1508   1.449       .  S
C1502      C1503   1.401       .  A
C1503      C1504   1.396       .  A
C1503      C1506   1.449       .  S
C1504      C1507   1.448       .  S
C1505      N1512   1.157       .  T
C1506      N1511   1.157       .  T
C1507      N1509   1.156       .  T
C1508      N1510   1.157       .  T
C1513      C1514   1.414       .  A
C1513      C1518   1.415       .  A
C1514      C1515   1.416       .  A
C1514      C1519   1.449       .  S
C1515      C1516   1.423       .  A
C1515      C1522   1.452       .  S
C1516      C1517   1.413       .  A
C1517      C1518   1.407       .  A
C1517      C1520   1.445       .  S
C1518      C1521   1.453       .  S
C1519      N1526   1.157       .  T
C1520      N1525   1.157       .  T
C1521      N1523   1.157       .  T
C1522      N1524   1.157       .  T
C1527      C1528   1.427       .  A
C1527      C1532   1.418       .  A
C1528      C1529   1.415       .  A
C1528      C1533   1.449       .  S
C1529      C1530   1.411       .  A
C1529      C3664   1.451       .  S
C1530      C1531   1.417       .  A
C1531      C1532   1.413       .  A
C1531      C1534   1.450       .  S
C1532      C1535   1.453       .  S
C1533      N1540   1.158       .  T
C1534      N1539   1.157       .  T
C1535      N1537   1.157       .  T
C1536      C3657   1.451       .  S
C1536      N1538   1.157   1_655  T
C1541      C1542   1.418       .  A
C1541      C1546   1.414       .  A
C1542      C1543   1.418       .  A
C1542      C1547   1.451       .  S
C1543      C1544   1.428       .  A
C1543      C1550   1.451       .  S
C1544      C1545   1.416       .  A
C1545      C1546   1.412       .  A
C1546      C1549   1.443       .  S
C1547      N1554   1.157       .  T
C1548      N1553   1.157       .  T
C1550      N1552   1.158       .  T
C1555      C1556   1.424       .  A
C1555      C1560   1.419       .  A
C1556      C1557   1.416       .  A
C1556      C1561   1.450       .  S
C1557      C1558   1.412       .  A
C1557      C1564   1.452       .  S
C1558      C1559   1.417       .  A
C1559      C1560   1.422       .  A
C1559      C1562   1.450       .  S
C1561      N1568   1.157       .  T
C1563      N1565   1.157       .  T
C1564      N1566   1.157       .  T
C1569      C1570   1.407       .  A
C1569      C1574   1.416       .  A
C1570      C1571   1.409       .  A
C1570      C1575   1.451       .  S
C1571      C1572   1.423       .  A
C1571      C1578   1.452       .  S
C1572      C1573   1.409       .  A
C1573      C1574   1.407       .  A
C1574      C1577   1.450       .  S
C1575      N1582   1.157       .  T
C1576      N1581   1.157   1_545  T
C1577      N1579   1.157       .  T
C1578      N1580   1.157       .  T
C1583      C1584   1.404       .  A
C1583      C1588   1.427       .  A
C1584      C1585   1.402       .  A
C1584      C1589   1.450       .  S
C1585      C1586   1.416       .  A
C1585      C1592   1.438       .  S
C1586      C1587   1.410       .  A
C1587      C1588   1.412       .  A
C1587      C1590   1.452       .  S
C1588      C1591   1.449       .  S
C1590      N1595   1.157       .  T
C1591      N1593   1.158       .  T
C1592      N1594   1.152       .  T
C1597      C1598   1.416       .  A
C1597      C1602   1.416       .  A
C1598      C1599   1.401       .  A
C1598      C1603   1.447       .  S
C1599      C1600   1.404       .  A
C1599      C1606   1.451       .  S
C1600      C1601   1.408       .  A
C1601      C1602   1.411       .  A
C1601      C1604   1.450       .  S
C1602      C1605   1.448       .  S
C1603      N1610   1.155       .  T
C1604      N1609   1.157       .  T
C1605      N1607   1.156       .  T
C1606      N1608   1.157       .  T
C1611      C1612   1.416       .  A
C1611      C1616   1.420       .  A
C1612      C1613   1.408       .  A
C1612      C1617   1.450       .  S
C1613      C1614   1.408       .  A
C1613      C1620   1.449       .  S
C1614      C1615   1.408       .  A
C1615      C1616   1.411       .  A
C1615      C1618   1.450       .  S
C1616      C1619   1.449       .  S
C1617      N1624   1.157       .  T
C1618      N1623   1.157       .  T
C1619      N1621   1.157       .  T
C1620      N1622   1.157       .  T
C1625      C1626   1.409       .  A
C1625      C1630   1.410       .  A
C1626      C1627   1.412       .  A
C1626      C1631   1.450       .  S
C1627      C1628   1.422       .  A
C1627      C1634   1.451       .  S
C1628      C1629   1.423       .  A
C1629      C1630   1.410       .  A
C1629      C1632   1.453       .  S
C1630      C1633   1.452       .  S
C1631      N1638   1.157       .  T
C1632      N1637   1.158       .  T
C1633      N1635   1.157       .  T
C1634      N1636   1.157       .  T
C1639      C1640   1.416       .  A
C1639      C1644   1.417       .  A
C1640      C1641   1.418       .  A
C1640      C1645   1.451       .  S
C1641      C1642   1.415       .  A
C1641      C1648   1.449       .  S
C1642      C1643   1.416       .  A
C1643      C1644   1.417       .  A
C1643      C1646   1.450       .  S
C1644      C1647   1.451       .  S
C1645      N1652   1.157       .  T
C1646      N1651   1.157       .  T
C1647      N1649   1.158       .  T
C1648      N1650   1.157       .  T
C1653      C1654   1.409       .  A
C1653      C1658   1.412       .  A
C1654      C1655   1.418       .  A
C1654      C1659   1.449       .  S
C1655      C1656   1.424       .  A
C1655      C1662   1.451       .  S
C1656      C1657   1.420       .  A
C1657      C1658   1.410       .  A
C1657      C1660   1.452       .  S
C1658      C1661   1.452       .  S
C1659      N1666   1.157       .  T
C1660      N1665   1.157       .  T
C1662      N1664   1.157       .  T
C1667      C1668   1.414       .  A
C1667      C1672   1.416       .  A
C1668      C1669   1.414       .  A
C1668      C1673   1.448       .  S
C1669      C1670   1.413       .  A
C1669      C1676   1.451       .  S
C1670      C1671   1.413       .  A
C1671      C1672   1.411       .  A
C1671      C1674   1.452       .  S
C1672      C1675   1.452       .  S
C1673      N1680   1.157       .  T
C1674      N1679   1.157       .  T
C1675      N1677   1.157       .  T
C1676      N1678   1.157       .  T
C1681      C1682   1.409       .  A
C1681      C1686   1.412       .  A
C1682      C1683   1.410       .  A
C1682      C1687   1.451       .  S
C1683      C1684   1.414       .  A
C1683      C1690   1.447       .  S
C1684      C1685   1.420       .  A
C1685      C1686   1.413       .  A
C1685      C1688   1.452       .  S
C1686      C1689   1.452       .  S
C1687      N1694   1.157       .  T
C1688      N1693   1.158       .  T
C1689      N1691   1.158       .  T
C1690      N3820   1.157       .  T
N1692      C3818   1.157       .  T
C1695      C1696   1.417       .  A
C1695      C1700   1.417       .  A
C1696      C1697   1.415       .  A
C1696      C1701   1.449       .  S
C1697      C1698   1.413       .  A
C1697      C1704   1.450       .  S
C1698      C1699   1.415       .  A
C1699      C1700   1.414       .  A
C1699      C1702   1.452       .  S
C1700      C1703   1.451       .  S
C1701      N1708   1.157       .  T
C1702      N1707   1.157       .  T
C1703      N1705   1.157       .  T
C1704      N1706   1.157       .  T
C1709      C1710   1.413       .  A
C1709      C1714   1.415       .  A
C1710      C1711   1.413       .  A
C1710      C1715   1.448       .  S
C1711      C1712   1.413       .  A
C1711      C1718   1.450       .  S
C1712      C1713   1.414       .  A
C1713      C1714   1.412       .  A
C1713      C1716   1.453       .  S
C1714      C1717   1.451       .  S
C1715      N1722   1.157       .  T
C1716      N1721   1.158       .  T
C1717      N1719   1.157       .  T
C1718      N1720   1.157       .  T
C1723      C1724   1.409       .  A
C1723      C1728   1.414       .  A
C1724      C1725   1.416       .  A
C1724      C1729   1.450       .  S
C1725      C1726   1.428       .  A
C1725      C1732   1.452       .  S
C1726      C1727   1.426       .  A
C1727      C1728   1.411       .  A
C1727      C1730   1.453       .  S
C1728      C1731   1.455       .  S
C1730      N1735   1.158       .  T
C1731      N1733   1.157       .  T
C1732      N1734   1.158       .  T
C1737      C1738   1.416       .  A
C1737      C1742   1.419       .  A
C1738      C1739   1.414       .  A
C1738      C1743   1.450       .  S
C1739      C1740   1.413       .  A
C1739      C1746   1.448       .  S
C1740      C1741   1.412       .  A
C1741      C1742   1.414       .  A
C1741      C1744   1.451       .  S
C1742      C1745   1.452       .  S
C1743      N1750   1.157       .  T
C1744      N1749   1.157       .  T
C1745      N1747   1.157       .  T
C1746      N1748   1.157       .  T
C1751      C1752   1.416       .  A
C1751      C1756   1.418       .  A
C1752      C1753   1.418       .  A
C1752      C1757   1.447       .  S
C1753      C1754   1.414       .  A
C1753      C1760   1.451       .  S
C1754      C1755   1.413       .  A
C1755      C1756   1.417       .  A
C1755      C1758   1.451       .  S
C1756      C1759   1.450       .  S
C1757      N1764   1.157       .  T
C1758      N1763   1.157       .  T
C1759      N1761   1.157       .  T
C1760      N1762   1.157       .  T
C1765      C1766   1.419       .  A
C1765      C1770   1.420       .  A
C1766      C1767   1.411       .  A
C1766      C1771   1.453       .  S
C1767      C1768   1.414       .  A
C1767      C1774   1.451       .  S
C1768      C1769   1.415       .  A
C1769      C1770   1.418       .  A
C1769      C1772   1.450       .  S
C1770      C1773   1.451       .  S
C1771      N1778   1.158       .  T
C1773      N1775   1.158       .  T
C1774      N1776   1.157       .  T
C1779      C1780   1.419       .  A
C1779      C1784   1.422       .  A
C1780      C1781   1.416       .  A
C1780      C1785   1.452       .  S
C1781      C1782   1.412       .  A
C1781      C1788   1.448       .  S
C1782      C1783   1.413       .  A
C1783      C1784   1.416       .  A
C1783      C1786   1.452       .  S
C1784      C1787   1.452       .  S
C1785      N1792   1.157       .  T
C1786      N1791   1.157       .  T
C1787      N1789   1.158       .  T
C1788      N1790   1.157       .  T
C1793      C1794   1.410       .  A
C1793      C1798   1.412       .  A
C1794      C1795   1.418       .  A
C1794      C1799   1.449       .  S
C1795      C1796   1.426       .  A
C1795      C1802   1.450       .  S
C1796      C1797   1.413       .  A
C1797      C1798   1.407       .  A
C1797      C1800   1.445       .  S
C1798      C1801   1.452       .  S
C1799      N1806   1.157       .  T
C1800      N1805   1.157       .  T
C1801      N1803   1.157       .  T
C1802      N1804   1.157       .  T
C1807      C1808   1.415       .  A
C1807      C1812   1.415       .  A
C1808      C1809   1.416       .  A
C1808      C1813   1.448       .  S
C1809      C1810   1.419       .  A
C1809      C1816   1.449       .  S
C1810      C1811   1.405       .  A
C1811      C1812   1.397       .  A
C1811      C1814   1.446       .  S
C1812      C1815   1.451       .  S
C1813      N1820   1.157       .  T
C1814      N1819   1.157       .  T
C1815      N1817   1.157       .  T
C1816      N1818   1.157       .  T
C1821      C1822   1.412       .  A
C1821      C1826   1.411       .  A
C1822      C1823   1.408       .  A
C1822      C1827   1.452       .  S
C1823      C1824   1.418       .  A
C1823      C1830   1.446       .  S
C1824      C1825   1.425       .  A
C1825      C1826   1.414       .  A
C1825      C1828   1.449       .  S
C1826      C1829   1.450       .  S
C1827      N1834   1.157       .  T
C1828      N1833   1.158       .  T
C1830      N1832   1.155       .  T
C1835      C1836   1.421       .  A
C1835      C1840   1.416       .  A
C1836      C1837   1.407       .  A
C1836      C1841   1.451       .  S
C1837      C1838   1.409       .  A
C1837      C1844   1.448       .  S
C1838      C1839   1.419       .  A
C1839      C1840   1.415       .  A
C1839      C1842   1.449       .  S
C1840      C1843   1.449       .  S
C1841      N1848   1.157       .  T
C1842      N1847   1.157       .  T
C1843      N1845   1.157       .  T
C1844      N1846   1.156       .  T
C1849      C1850   1.407       .  A
C1849      C1854   1.414       .  A
C1850      C1851   1.411       .  A
C1850      C1855   1.451       .  S
C1851      C1852   1.422       .  A
C1851      C1858   1.451       .  S
C1852      C1853   1.413       .  A
C1853      C1854   1.414       .  A
C1853      C3984   1.450   1_455  S
C1854      C1857   1.449       .  S
C1855      N1862   1.157       .  T
C1856      C3981   1.450       .  S
C1856      N1861   1.157       .  T
C1857      N1859   1.157       .  T
C1858      N1860   1.157       .  T
C1863      C1864   1.418       .  A
C1863      C1868   1.423       .  A
C1864      C1865   1.406       .  A
C1864      C1869   1.450       .  S
C1865      C1866   1.408       .  A
C1865      C1872   1.451       .  S
C1866      C1867   1.410       .  A
C1867      C1868   1.417       .  A
C1867      C1870   1.450       .  S
C1868      C1871   1.450       .  S
C1869      N1876   1.157       .  T
C1870      N1875   1.157       .  T
C1871      N1873   1.158       .  T
C1872      N1874   1.157       .  T
C1877      C1878   1.411       .  A
C1877      C1882   1.410       .  A
C1878      C1879   1.412       .  A
C1878      C1883   1.451       .  S
C1879      C1880   1.417       .  A
C1879      C1886   1.451       .  S
C1880      C1881   1.415       .  A
C1881      C1882   1.410       .  A
C1882      C1885   1.450       .  S
C1883      N1890   1.157       .  T
C1884      N1889   1.157   1_545  T
C1885      N1887   1.157       .  T
C1886      N1888   1.157       .  T
C1891      C1892   1.420       .  A
C1891      C1896   1.423       .  A
C1892      C1893   1.404       .  A
C1892      C1897   1.450       .  S
C1893      C1894   1.404       .  A
C1893      C1900   1.450       .  S
C1894      C1895   1.410       .  A
C1895      C1896   1.419       .  A
C1895      C1898   1.449       .  S
C1896      C1899   1.450       .  S
C1897      N1904   1.157       .  T
C1898      N1903   1.157       .  T
C1899      N1901   1.157       .  T
C1900      N1902   1.157       .  T
C1905      C1906   1.412       .  A
C1905      C1910   1.408       .  A
C1906      C1907   1.402       .  A
C1906      C1911   1.448       .  S
C1907      C1908   1.409       .  A
C1907      C4042   1.445       .  S
C1908      C1909   1.432       .  A
C1909      C1910   1.413       .  A
C1909      C1912   1.449       .  S
C1910      C1913   1.450       .  S
C1911      N4046   1.157       .  T
C1912      N1917   1.157       .  T
C1913      N1915   1.157       .  T
C1914      C4035   1.445       .  S
C1914      N1916   1.157   1_655  T
N1918      C4039   1.157       .  T
C1919      C1920   1.423       .  A
C1919      C1924   1.418       .  A
C1920      C1921   1.418       .  A
C1920      C1925   1.450       .  S
C1921      C1922   1.410       .  A
C1921      C1928   1.450       .  S
C1922      C1923   1.409       .  A
C1923      C1924   1.408       .  A
C1923      C1926   1.451       .  S
C1924      C1927   1.452       .  S
C1925      N1932   1.158       .  T
C1926      N1931   1.157       .  T
C1927      N1929   1.157       .  T
C1928      N1930   1.157       .  T
C1933      C1934   1.416       .  A
C1933      C1938   1.417       .  A
C1934      C1935   1.415       .  A
C1934      C1939   1.450       .  S
C1935      C1936   1.416       .  A
C1935      C1942   1.450       .  S
C1936      C1937   1.407       .  A
C1937      C1938   1.402       .  A
C1937      C4068   1.447       .  S
C1938      C1941   1.450       .  S
C1939      N1946   1.157       .  T
C1940      C4065   1.447       .  S
C1940      N1945   1.157       .  T
C1941      N4071   1.156       .  T
C1942      N1944   1.157       .  T
N1943      C4069   1.156       .  T
C1947      C1948   1.409       .  A
C1947      C1952   1.412       .  A
C1948      C1949   1.407       .  A
C1948      C1953   1.451       .  S
C1949      C1950   1.418       .  A
C1949      C1956   1.453       .  S
C1950      C1951   1.412       .  A
C1951      C1952   1.409       .  A
C1951      C1954   1.450       .  S
C1952      C1955   1.449       .  S
C1953      N1960   1.157       .  T
C1954      N1959   1.157       .  T
C1955      N1957   1.157       .  T
C1956      N1958   1.157       .  T
C1961      C1962   1.411       .  A
C1961      C1966   1.413       .  A
C1962      C1963   1.415       .  A
C1962      C1967   1.451       .  S
C1963      C1964   1.420       .  A
C1963      C1970   1.452       .  S
C1964      C1965   1.416       .  A
C1965      C1966   1.408       .  A
C1965      C1968   1.451       .  S
C1966      C1969   1.452       .  S
C1967      N1974   1.157       .  T
C1968      N1973   1.157       .  T
C1969      N4099   1.157       .  T
C1970      N1972   1.158       .  T
N1971      C4097   1.157       .  T
C1975      C1976   1.411       .  A
C1975      C1980   1.410       .  A
C1976      C1977   1.413       .  A
C1976      C1981   1.452       .  S
C1977      C1978   1.417       .  A
C1977      C1984   1.448       .  S
C1978      C1979   1.421       .  A
C1979      C1980   1.414       .  A
C1979      C1982   1.451       .  S
C1980      C1983   1.451       .  S
C1981      N1988   1.157       .  T
C1982      N1987   1.157       .  T
C1983      N1985   1.157       .  T
C1989      C1990   1.425       .  A
C1989      C1994   1.424       .  A
C1990      C1991   1.415       .  A
C1990      C1995   1.452       .  S
C1991      C1992   1.414       .  A
C1991      C1998   1.453       .  S
C1992      C1993   1.410       .  A
C1993      C1994   1.412       .  A
C1993      C1996   1.449       .  S
C1994      C1997   1.453       .  S
C1995      N2002   1.158       .  T
C1996      N2001   1.157       .  T
C1997      N1999   1.158       .  T
C2003      C2004   1.413       .  A
C2003      C2008   1.411       .  A
C2004      C2005   1.413       .  A
C2004      C2009   1.452       .  S
C2005      C2006   1.414       .  A
C2005      C2012   1.449       .  S
C2006      C2007   1.417       .  A
C2007      C2008   1.412       .  A
C2007      C2010   1.452       .  S
C2008      C2011   1.449       .  S
C2009      N2016   1.157       .  T
C2010      N4143   1.157       .  T
C2011      N2013   1.156       .  T
C2012      N2014   1.157       .  T
N2015      C4138   1.157       .  T
C2017      C2018   1.410       .  A
C2017      C2022   1.412       .  A
C2018      C2019   1.406       .  A
C2018      C2023   1.452       .  S
C2019      C2020   1.414       .  A
C2019      C2026   1.452       .  S
C2020      C2021   1.412       .  A
C2021      C2022   1.412       .  A
C2021      C2024   1.450       .  S
C2022      C2025   1.451       .  S
C2023      N2030   1.157       .  T
C2024      N2029   1.157       .  T
C2025      N2027   1.157       .  T
C2026      N2028   1.157       .  T
C2031      C2032   1.413       .  A
C2031      C2036   1.420       .  A
C2032      C2033   1.406       .  A
C2032      C2037   1.449       .  S
C2033      C2034   1.411       .  A
C2033      C2040   1.450       .  S
C2034      C2035   1.411       .  A
C2035      C2036   1.412       .  A
C2035      C2038   1.451       .  S
C2036      C2039   1.453       .  S
C2037      N2044   1.156       .  T
C2038      N2043   1.157       .  T
C2039      N2041   1.158       .  T
C2040      N2042   1.157       .  T
C2045      C2046   1.412       .  A
C2045      C2050   1.412       .  A
C2046      C2047   1.415       .  A
C2046      C2051   1.451       .  S
C2047      C2048   1.418       .  A
C2047      C2054   1.452       .  S
C2048      C2049   1.414       .  A
C2049      C2050   1.416       .  A
C2049      C2052   1.448       .  S
C2050      C2053   1.447       .  S
C2051      N2058   1.157       .  T
C2052      N2057   1.157       .  T
C2053      N2055   1.156       .  T
C2054      N2056   1.157       .  T
C2059      C2060   1.414       .  A
C2059      C2064   1.412       .  A
C2060      C2061   1.410       .  A
C2060      C2065   1.451       .  S
C2061      C2062   1.410       .  A
C2061      C2068   1.450       .  S
C2062      C2063   1.412       .  A
C2063      C2064   1.407       .  A
C2063      C2066   1.452       .  S
C2064      C2067   1.448       .  S
C2065      N2072   1.157       .  T
C2066      N2071   1.157       .  T
C2067      N2069   1.156       .  T
C2068      N2070   1.157       .  T
C2073      C2074   1.424       .  A
C2073      C2078   1.418       .  A
C2074      C2075   1.415       .  A
C2074      C2079   1.453       .  S
C2075      C2076   1.409       .  A
C2075      C2082   1.450       .  S
C2076      C2077   1.414       .  A
C2077      C2078   1.411       .  A
C2077      C2080   1.452       .  S
C2078      C2081   1.452       .  S
C2079      N2086   1.158       .  T
C2080      N2085   1.157       .  T
C2081      N2083   1.157       .  T
C2082      N4212   1.157       .  T
N2084      C4210   1.157       .  T
C2087      C2088   1.416       .  A
C2087      C2092   1.413       .  A
C2088      C2089   1.412       .  A
C2088      C2093   1.451       .  S
C2089      C2090   1.412       .  A
C2089      C2096   1.452       .  S
C2090      C2091   1.416       .  A
C2091      C2092   1.417       .  A
C2091      C2094   1.451       .  S
C2092      C2095   1.448       .  S
C2094      N2099   1.158       .  T
C2095      N2097   1.157       .  T
C2096      N2098   1.157       .  T
C2101      C2102   1.413       .  A
C2101      C2106   1.415       .  A
C2102      C2103   1.415       .  A
C2102      C2107   1.451       .  S
C2103      C2104   1.417       .  A
C2103      C2110   1.450       .  S
C2104      C2105   1.415       .  A
C2105      C2106   1.417       .  A
C2105      C2108   1.448       .  S
C2106      C2109   1.452       .  S
C2107      N2114   1.157       .  T
C2108      N2113   1.157       .  T
C2109      N2111   1.158       .  T
C2110      N2112   1.157       .  T
C2115      C2116   1.424       .  A
C2115      C2120   1.425       .  A
C2116      C2117   1.416       .  A
C2116      C2121   1.452       .  S
C2117      C2118   1.411       .  A
C2117      C2124   1.451       .  S
C2118      C2119   1.410       .  A
C2119      C2120   1.413       .  A
C2119      C2122   1.453       .  S
C2120      C2123   1.451       .  S
C2121      N2128   1.158       .  T
C2122      N2127   1.157       .  T
C2123      N2125   1.157       .  T
C2124      N2126   1.157       .  T
Zn2129     O2133   1.959   1_554  S
Zn2129     O2134   2.009       .  S
Zn2129     O2138   2.039       .  S
Zn2129     O2145   2.020       .  S
Zn2130     O2133   1.973       .  S
Zn2130     O2135   2.041       .  S
Zn2130     O2137   2.024   1_556  S
Zn2130     O2141   2.060       .  S
Zn2131     O2133   1.964       .  S
Zn2131     O2136   2.032   1_556  S
Zn2131     O2139   2.016       .  S
Zn2131     O2142   2.001       .  S
Zn2132     O2133   1.963       .  S
Zn2132     O2140   2.034       .  S
Zn2132     O2143   2.028       .  S
Zn2132     O2144   2.046   1_556  S
O2134      C2146   1.274       .  A
O2135      C2147   1.277       .  A
O2136      C2148   1.274       .  A
O2137      C2146   1.275       .  A
O2138      C2148   1.275       .  A
O2139      C2147   1.274       .  A
O2140      C2149   1.277       .  A
O2141      C2150   1.278       .  A
O2142      C2149   1.271       .  A
O2143      C2150   1.274       .  A
O2144      C2151   1.278       .  A
O2145      C2151   1.273       .  A
C2146      C3123   1.484       .  S
C2147      C3179   1.511       .  S
C2148      C3165   1.497       .  S
C2149      C3137   1.502       .  S
C2150      C3109   1.493       .  S
C2151      C3154   1.492       .  S
Zn2152     O2156   1.952       .  S
Zn2152     O2157   2.019       .  S
Zn2152     O2161   2.020       .  S
Zn2152     O2168   2.029       .  S
Zn2153     O2156   1.964       .  S
Zn2153     O2158   2.029       .  S
Zn2153     O2160   2.037       .  S
Zn2153     O2164   2.019       .  S
Zn2154     O2156   1.959       .  S
Zn2154     O2159   1.996       .  S
Zn2154     O2162   1.994       .  S
Zn2154     O2165   2.017       .  S
Zn2155     O2156   1.953       .  S
Zn2155     O2163   2.017       .  S
Zn2155     O2166   2.020       .  S
Zn2155     O2167   2.026       .  S
O2157      C2169   1.274       .  A
O2158      C2170   1.276       .  A
O2159      C2171   1.271       .  A
O2160      C2169   1.276       .  A
O2161      C2171   1.274       .  A
O2162      C2170   1.270       .  A
O2163      C2172   1.273       .  A
O2164      C2173   1.274       .  A
O2165      C2172   1.272       .  A
O2166      C2173   1.275       .  A
O2167      C2174   1.274       .  A
O2168      C2174   1.275       .  A
C2169      C3067   1.489       .  S
C2170      C3095   1.490       .  S
C2171      C3081   1.477       .  S
C2172      C3053   1.511       .  S
C2173      C3028   1.496       .  S
C2174      C3039   1.489       .  S
N2175      C2180   1.358       .  A
N2175      C3243   1.353       .  A
N2175      H2207   1.039       .  S
N2176      C2183   1.352       .  A
N2176      C2184   1.357       .  A
N2177      C2182   1.350       .  A
N2177      C3245   1.348       .  A
N2177      H2208   1.039       .  S
N2178      C2185   1.350       .  A
N2178      C2186   1.348       .  A
C2179      N3239   1.353       .  A
C2179      C2187   1.389       .  A
C2179      C2195   1.422       .  A
C2180      C2196   1.422       .  A
C2180      C2188   1.383       .  A
C2181      N3241   1.349       .  A
C2181      C2189   1.386       .  A
C2181      C2198   1.410       .  A
C2182      C2197   1.410       .  A
C2182      C2190   1.387       .  A
C2183      C2195   1.425       .  A
C2183      C2191   1.390       .  A
C2184      C2198   1.415       .  A
C2184      C2192   1.383       .  A
C2185      C2193   1.383       .  A
C2185      C2196   1.411       .  A
C2186      C2194   1.382       .  A
C2186      C2197   1.408       .  A
C2187      C3252   1.372   1_545  A
C2187      H2199   1.075       .  S
C2188      C3251   1.372       .  A
C2188      H2200   1.082       .  S
C2189      C3254   1.379   1_545  A
C2189      H2201   1.082       .  S
C2190      C3253   1.379       .  A
C2190      H2202   1.082       .  S
C2191      C2192   1.366       .  A
C2191      H2203   1.081       .  S
C2192      H2204   1.080       .  S
C2193      C2194   1.377       .  A
C2193      H2205   1.081       .  S
C2194      H2206   1.079       .  S
C2195      C2969   1.504       .  S
C2196      C2983   1.517       .  S
C2197      C3011   1.488       .  S
C2198      C2997   1.506       .  S
N2209      C2214   1.354       .  A
N2209      C2213   1.349       .  A
N2209      H2241   1.042       .  S
N2210      C2217   1.350       .  A
N2210      C2218   1.355       .  A
N2211      C2216   1.351       .  A
N2211      C2215   1.352       .  A
N2211      H2242   1.042       .  S
N2212      C2219   1.351       .  A
N2212      C2220   1.346       .  A
C2213      C2221   1.385       .  A
C2213      C2229   1.409       .  A
C2214      C2230   1.419       .  A
C2214      C2222   1.389       .  A
C2215      C2223   1.389       .  A
C2215      C2232   1.419       .  A
C2216      C2231   1.411       .  A
C2216      C2224   1.386       .  A
C2217      C2229   1.415       .  A
C2217      C2225   1.382       .  A
C2218      C2232   1.419       .  A
C2218      C2226   1.386       .  A
C2219      C2227   1.385       .  A
C2219      C2230   1.412       .  A
C2220      C2228   1.381       .  A
C2220      C2231   1.407       .  A
C2221      C2222   1.380       .  A
C2221      H2233   1.082       .  S
C2222      H2234   1.082       .  S
C2223      C2224   1.381       .  A
C2223      H2235   1.082       .  S
C2224      H2236   1.082       .  S
C2225      C2226   1.376       .  A
C2225      H2237   1.077       .  S
C2226      H2238   1.082       .  S
C2227      C2228   1.380       .  A
C2227      H2239   1.082       .  S
C2228      H2240   1.078       .  S
C2229      C2913   1.496       .  S
C2230      C2927   1.515       .  S
C2231      C2941   1.493       .  S
C2232      C2955   1.516       .  S
N2243      C2248   1.358   1_455  A
N2243      H2275   1.038       .  S
N2244      C2251   1.350       .  A
N2244      C2252   1.354       .  A
N2245      C2250   1.354   1_455  A
N2245      H2276   1.042       .  S
N2246      C2253   1.348       .  A
N2246      C2254   1.349       .  A
C2247      C2255   1.390       .  A
C2247      C2263   1.425       .  A
C2248      C2264   1.420       .  A
C2248      C2256   1.385       .  A
C2249      C2257   1.388       .  A
C2249      C2266   1.423       .  A
C2250      C2265   1.422       .  A
C2250      C2258   1.388       .  A
C2251      C2263   1.414       .  A
C2251      C2259   1.387       .  A
C2252      C2266   1.416       .  A
C2252      C2260   1.383       .  A
C2253      C2261   1.383       .  A
C2253      C2264   1.406       .  A
C2254      C2262   1.387       .  A
C2254      C2265   1.414       .  A
C2255      H2267   1.082       .  S
C2256      H2268   1.082       .  S
C2257      H2269   1.083       .  S
C2258      H2270   1.082       .  S
C2259      C2260   1.373       .  A
C2259      H2271   1.077       .  S
C2260      H2272   1.082       .  S
C2261      C2262   1.375       .  A
C2261      H2273   1.080       .  S
C2262      H2274   1.082       .  S
C2263      C2871   1.501       .  S
C2264      C2857   1.505       .  S
C2265      C2902   1.510       .  S
C2266      C2888   1.520       .  S
C2277      C2846   1.500       .  S
C2277      C2282   1.408       .  A
C2278      C3025   1.489       .  S
C2278      C2279   1.399       .  A
C2279      C2280   1.396       .  A
C2279      H2284   1.085       .  S
C2280      C3000   1.493       .  S
C2281      C2958   1.493       .  S
C2281      C2282   1.405       .  A
C2282      H2283   1.084       .  S
C2285      C3056   1.498       .  S
C2285      C3350   1.421   1_545  A
C2285      C2290   1.408       .  A
C2286      C2832   1.501       .  S
C2286      C3349   1.421       .  A
C2286      C2287   1.403       .  A
C2287      C2288   1.404       .  A
C2287      H2292   1.084       .  S
C2288      C2885   1.500       .  S
C2288      C3353   1.419       .  A
C2289      C2944   1.499       .  S
C2289      C3352   1.418   1_545  A
C2289      C2290   1.404       .  A
C2290      H2291   1.084       .  S
C2293      C3182   1.493       .  S
C2293      C2294   1.419       .  A
C2293      C2298   1.405       .  A
C2294      C2815   1.509       .  S
C2294      C2295   1.410       .  A
C2295      C2296   1.412       .  A
C2295      H2300   1.084       .  S
C2296      C2986   1.495       .  S
C2296      C2297   1.423       .  A
C2297      C2860   1.513       .  S
C2297      C2298   1.403       .  A
C2298      H2299   1.085       .  S
C2301      C3098   1.486       .  S
C2301      C2302   1.413       .  A
C2301      C2306   1.401       .  A
C2302      C2804   1.497       .  S
C2302      C2303   1.398       .  A
C2303      C2304   1.406       .  A
C2303      H2308   1.085       .  S
C2304      C3014   1.490       .  S
C2304      C2305   1.424       .  A
C2305      C2899   1.509       .  S
C2305      C2306   1.404       .  A
C2306      H2307   1.085       .  S
C2309      C3112   1.502       .  S
C2309      C3374   1.423   1_545  A
C2309      C2314   1.408       .  A
C2310      C2787   1.497       .  S
C2310      C3373   1.423       .  A
C2310      C2311   1.405       .  A
C2311      C2312   1.398       .  A
C2311      H2316   1.085       .  S
C2312      C2874   1.498       .  S
C2312      C3377   1.417       .  A
C2313      C2930   1.493       .  S
C2313      C3376   1.417   1_545  A
C2313      C2314   1.404       .  A
C2314      H2315   1.084       .  S
C2317      C3140   1.491       .  S
C2317      C2322   1.398       .  A
C2318      C2773   1.493       .  S
C2318      C2319   1.399       .  A
C2319      C2320   1.407       .  A
C2319      H2324   1.085       .  S
C2320      C2916   1.503       .  S
C2321      C2972   1.517       .  S
C2321      C2322   1.407       .  A
C2322      H2323   1.083       .  S
Zn2325     O2329   1.970       .  S
Zn2325     O2330   2.053       .  S
Zn2325     O2334   2.027       .  S
Zn2325     O2341   2.044       .  S
Zn2326     O2329   1.967       .  S
Zn2326     O2331   2.031       .  S
Zn2326     O2333   2.024       .  S
Zn2326     O2337   2.044       .  S
Zn2327     O2329   1.969       .  S
Zn2327     O2332   2.027       .  S
Zn2327     O2335   2.012       .  S
Zn2327     O2338   2.039       .  S
Zn2328     O2329   1.950       .  S
Zn2328     O2336   2.029       .  S
Zn2328     O2339   2.014       .  S
Zn2328     O2340   2.025       .  S
O2330      C2342   1.278       .  A
O2331      C2343   1.277       .  A
O2332      C2344   1.276       .  A
O2333      C2342   1.274       .  A
O2334      C2344   1.276       .  A
O2335      C2343   1.272       .  A
O2336      C2345   1.274       .  A
O2337      C2346   1.276       .  A
O2338      C2345   1.275       .  A
O2339      C2346   1.275       .  A
O2340      C2347   1.276       .  A
O2341      C2347   1.277       .  A
C2342      C2762   1.498       .  S
C2343      C2745   1.485       .  S
C2344      C2734   1.489       .  S
C2345      C2843   1.509       .  S
C2346      C2829   1.506       .  S
C2347      C2801   1.502       .  S
Zn2348     O2352   1.972   1_556  S
Zn2348     O2353   2.042       .  S
Zn2348     O2357   2.023   1_556  S
Zn2348     O2364   2.022       .  S
Zn2349     O2352   1.977   1_556  S
Zn2349     O2354   2.032   1_556  S
Zn2349     O2356   2.051       .  S
Zn2349     O2360   2.043       .  S
Zn2350     O2352   1.957       .  S
Zn2350     O2355   2.036       .  S
Zn2350     O2358   2.004       .  S
Zn2350     O2361   2.047       .  S
Zn2351     O2352   1.962   1_556  S
Zn2351     O2359   2.037   1_556  S
Zn2351     O2362   2.011       .  S
Zn2351     O2363   2.017       .  S
O2353      C2365   1.276       .  A
O2354      C2366   1.275       .  A
O2355      C2367   1.277       .  A
O2356      C2365   1.277       .  A
O2357      C2367   1.273       .  A
O2358      C2366   1.273       .  A
O2359      C2368   1.274       .  A
O2360      C2369   1.277       .  A
O2361      C2368   1.276       .  A
O2362      C2369   1.273       .  A
O2363      C2370   1.274       .  A
O2364      C2370   1.274       .  A
C2365      C2818   1.499       .  S
C2366      C2692   1.503       .  S
C2367      C2720   1.506       .  S
C2368      C2703   1.504       .  S
C2369      C2776   1.491       .  S
C2370      C2790   1.516       .  S
N2371      C2375   1.350       .  A
N2371      H2403   1.040       .  S
N2372      C2379   1.351       .  A
N2372      C2380   1.347       .  A
N2373      C2377   1.359       .  A
N2373      H2404   1.037       .  S
N2374      C2381   1.353       .  A
N2374      C2382   1.351       .  A
C2375      C2383   1.389       .  A
C2375      C2391   1.411       .  A
C2376      C2392   1.399       .  A
C2376      C2384   1.383       .  A
C2377      C2385   1.383       .  A
C2377      C2394   1.423       .  A
C2378      C2393   1.432       .  A
C2378      C2386   1.391       .  A
C2379      C2391   1.411       .  A
C2379      C2387   1.382       .  A
C2380      C2394   1.412       .  A
C2380      C2388   1.384       .  A
C2381      C2389   1.382       .  A
C2381      C2392   1.411       .  A
C2382      C2390   1.389       .  A
C2382      C2393   1.421       .  A
C2383      H2395   1.082       .  S
C2384      H2396   1.082       .  S
C2385      H2397   1.081       .  S
C2386      H2398   1.076       .  S
C2387      C2388   1.376       .  A
C2387      H2399   1.079       .  S
C2388      H2400   1.079       .  S
C2389      C2390   1.368       .  A
C2389      H2401   1.079       .  S
C2390      H2402   1.082       .  S
C2391      C2661   1.499       .  S
C2392      C2633   1.492       .  S
C2393      C2650   1.509       .  S
C2394      C2675   1.509       .  S
N2405      C2410   1.356       .  A
N2405      C2409   1.357       .  A
N2405      H2437   1.041       .  S
N2406      C2413   1.349       .  A
N2406      C2414   1.351       .  A
N2407      C2412   1.354       .  A
N2407      C2411   1.355       .  A
N2407      H2438   1.042       .  S
N2408      C2415   1.357       .  A
N2408      C2416   1.357       .  A
C2409      C2417   1.389       .  A
C2409      C2425   1.427       .  A
C2410      C2426   1.422       .  A
C2410      C2418   1.386       .  A
C2411      C2419   1.388       .  A
C2411      C2428   1.425       .  A
C2412      C2427   1.421       .  A
C2412      C2420   1.388       .  A
C2413      C2425   1.413       .  A
C2413      C2421   1.387       .  A
C2414      C2428   1.415       .  A
C2414      C2422   1.383       .  A
C2415      C2423   1.385       .  A
C2415      C2426   1.424       .  A
C2416      C2424   1.387       .  A
C2416      C2427   1.426       .  A
C2417      C2418   1.375       .  A
C2417      H2429   1.081       .  S
C2418      H2430   1.082       .  S
C2419      C2420   1.382       .  A
C2419      H2431   1.082       .  S
C2420      H2432   1.081       .  S
C2421      C2422   1.375       .  A
C2421      H2433   1.076       .  S
C2422      H2434   1.082       .  S
C2423      C2424   1.379       .  A
C2423      H2435   1.082       .  S
C2424      H2436   1.082       .  S
C2425      C2577   1.508       .  S
C2426      C2605   1.525       .  S
C2427      C2622   1.517       .  S
C2428      C2591   1.523       .  S
C2439      C3042   1.504       .  S
C2439      C3504   1.420   1_545  A
C2439      C2444   1.399       .  A
C2440      C2759   1.503       .  S
C2440      C3503   1.419       .  A
C2440      C2441   1.410       .  A
C2441      C2442   1.412       .  A
C2441      H2446   1.082       .  S
C2442      C2608   1.529       .  S
C2442      C3507   1.433       .  A
C2443      C2636   1.496       .  S
C2443      C3506   1.433   1_545  A
C2443      C2444   1.403       .  A
C2444      H2445   1.085       .  S
N2447      C3516   1.353   1_545  A
N2447      C2451   1.350       .  A
N2447      H2479   1.044       .  S
N2448      C2455   1.347       .  A
N2448      C2456   1.347       .  A
N2449      C3518   1.349       .  A
N2449      C2453   1.349   1_565  A
N2449      H2480   1.042       .  S
N2450      C2457   1.352       .  A
N2450      C2458   1.350       .  A
C2451      C2459   1.385       .  A
C2451      C2467   1.413       .  A
C2452      N3511   1.353       .  A
C2452      C2468   1.419       .  A
C2452      C2460   1.388       .  A
C2453      C2461   1.389       .  A
C2453      C2470   1.413       .  A
C2454      N3513   1.349       .  A
C2454      C2469   1.405       .  A
C2454      C2462   1.385       .  A
C2455      C2467   1.407       .  A
C2455      C2463   1.384       .  A
C2456      C2470   1.411       .  A
C2456      C2464   1.386       .  A
C2457      C2465   1.390       .  A
C2457      C2468   1.422       .  A
C2458      C2466   1.374       .  A
C2458      C2469   1.408       .  A
C2459      C3524   1.385   1_545  A
C2459      H2471   1.082       .  S
C2460      C3523   1.385       .  A
C2460      H2472   1.082       .  S
C2461      C3526   1.377   1_545  A
C2461      H2473   1.082       .  S
C2462      C3525   1.377       .  A
C2462      H2474   1.082       .  S
C2463      C2464   1.376       .  A
C2463      H2475   1.081       .  S
C2464      H2476   1.081       .  S
C2465      C2466   1.378       .  A
C2465      H2477   1.082       .  S
C2466      H2478   1.073       .  S
C2467      C2552   1.497       .  S
C2468      C2524   1.523       .  S
C2469      C2538   1.497       .  S
C2470      C2563   1.495       .  S
C2481      C2717   1.493       .  S
C2481      C3546   1.410       .  A
C2481      C2486   1.407       .  A
C2482      C3151   1.497       .  S
C2482      C3545   1.410   1_545  A
C2482      C2483   1.397       .  A
C2483      C2484   1.408       .  A
C2483      H2488   1.082       .  S
C2484      C2647   1.504       .  S
C2484      C3549   1.439   1_545  A
C2485      C2619   1.526       .  S
C2485      C3548   1.439       .  A
C2485      C2486   1.412       .  A
C2486      H2487   1.084       .  S
C2489      C2731   1.496       .  S
C2489      C2490   1.419       .  A
C2489      C2494   1.402       .  A
C2490      C3084   1.483       .  S
C2490      C2491   1.405       .  A
C2491      C2492   1.394       .  A
C2491      H2496   1.085       .  S
C2492      C2549   1.491       .  S
C2492      C2493   1.411       .  A
C2493      C2664   1.479       .  S
C2493      C2494   1.399       .  A
C2494      H2495   1.085       .  S
C2497      C3126   1.483       .  S
C2497      C2498   1.416       .  A
C2497      C2502   1.397       .  A
C2498      C2689   1.488       .  S
C2498      C2499   1.404       .  A
C2499      C2500   1.399       .  A
C2499      H2504   1.084       .  S
C2500      C2678   1.489       .  S
C2500      C2501   1.411       .  A
C2501      C2566   1.476       .  S
C2501      C2502   1.392       .  A
C2502      H2503   1.085       .  S
C2505      C2748   1.497       .  S
C2505      C2510   1.400       .  A
C2506      C3070   1.498       .  S
C2506      C2507   1.406       .  A
C2507      C2508   1.408       .  A
C2507      H2512   1.084       .  S
C2508      C2580   1.511       .  S
C2509      C2521   1.487       .  S
C2509      C2510   1.400       .  A
C2510      H2511   1.085       .  S
C2513      C3168   1.500       .  S
C2513      C2518   1.408       .  A
C2514      C2706   1.503       .  S
C2514      C2515   1.406       .  A
C2515      C2516   1.407       .  A
C2515      H2520   1.085       .  S
C2516      C2535   1.502       .  S
C2517      C2594   1.509       .  S
C2517      C2518   1.406       .  A
C2518      H2519   1.084       .  S
C2521      C2522   1.405       .  A
C2521      C2526   1.405       .  A
C2522      C2523   1.408       .  A
C2523      C2524   1.428       .  A
C2523      C2530   1.445       .  S
C2524      C2525   1.425       .  A
C2525      C2526   1.414       .  A
C2525      C2528   1.451       .  S
C2526      C2529   1.449       .  S
C2527      N2534   1.157       .  T
C2528      N2533   1.157       .  T
C2529      N2531   1.157       .  T
C2535      C2536   1.414       .  A
C2535      C2540   1.419       .  A
C2536      C2537   1.410       .  A
C2536      C2541   1.450       .  S
C2537      C2538   1.411       .  A
C2537      C2544   1.449       .  S
C2538      C2539   1.410       .  A
C2539      C2540   1.413       .  A
C2539      C2542   1.450       .  S
C2540      C2543   1.451       .  S
C2541      N2548   1.157       .  T
C2542      N2547   1.157       .  T
C2543      N2545   1.157       .  T
C2544      N2546   1.157       .  T
C2549      C2550   1.413       .  A
C2549      C2554   1.408       .  A
C2550      C2551   1.415       .  A
C2550      C2555   1.449       .  S
C2551      C2552   1.416       .  A
C2551      C2558   1.450       .  S
C2552      C2553   1.412       .  A
C2553      C2554   1.403       .  A
C2553      C2556   1.450       .  S
C2554      C2557   1.448       .  S
C2555      N2562   1.157       .  T
C2556      N2561   1.157       .  T
C2557      N2559   1.157       .  T
C2558      N2560   1.157       .  T
C2563      C2564   1.417       .  A
C2563      C2568   1.416       .  A
C2564      C2565   1.410       .  A
C2564      C2569   1.450       .  S
C2565      C2566   1.409       .  A
C2565      C2572   1.449       .  S
C2566      C2567   1.401       .  A
C2567      C2568   1.396       .  A
C2567      C2570   1.449       .  S
C2568      C2571   1.448       .  S
C2569      N2576   1.157       .  T
C2570      N2575   1.157       .  T
C2571      N2573   1.156       .  T
C2572      N2574   1.157       .  T
C2577      C2578   1.414       .  A
C2577      C2582   1.415       .  A
C2578      C2579   1.416       .  A
C2578      C2583   1.449       .  S
C2579      C2580   1.423       .  A
C2579      C2586   1.452       .  S
C2580      C2581   1.413       .  A
C2581      C2582   1.407       .  A
C2581      C2584   1.445       .  S
C2582      C2585   1.453       .  S
C2583      N2590   1.157       .  T
C2584      N2589   1.157   1_655  T
C2585      N2587   1.157       .  T
C2586      N2588   1.157       .  T
C2591      C2592   1.427       .  A
C2591      C2596   1.418       .  A
C2592      C2593   1.415       .  A
C2592      C2597   1.449       .  S
C2593      C2594   1.411       .  A
C2594      C2595   1.417       .  A
C2595      C2596   1.413       .  A
C2595      C2598   1.450       .  S
C2596      C2599   1.453       .  S
C2597      N2604   1.158       .  T
C2598      N2603   1.157       .  T
C2599      N2601   1.157       .  T
C2600      N2602   1.157       .  T
C2605      C2606   1.418       .  A
C2605      C2610   1.414       .  A
C2606      C2607   1.418       .  A
C2606      C2611   1.451       .  S
C2607      C2608   1.428       .  A
C2607      C2614   1.451       .  S
C2608      C2609   1.416       .  A
C2609      C2610   1.412       .  A
C2609      C3676   1.446       .  S
C2610      C2613   1.443       .  S
C2611      N2618   1.157       .  T
C2612      C3673   1.446   1_545  S
C2612      N2617   1.157       .  T
C2613      N3679   1.155       .  T
C2614      N2616   1.158       .  T
N2615      C3677   1.155   1_545  T
C2619      C2620   1.424       .  A
C2619      C2624   1.419       .  A
C2620      C2621   1.416       .  A
C2620      C2625   1.450       .  S
C2621      C2622   1.412       .  A
C2621      C2628   1.452       .  S
C2622      C2623   1.417       .  A
C2623      C2624   1.422       .  A
C2623      C2626   1.450       .  S
C2624      C3691   1.449       .  S
C2625      N2632   1.157       .  T
C2626      N3695   1.157       .  T
C2627      C3688   1.449   1_545  S
C2627      N2629   1.157       .  T
C2628      N2630   1.157       .  T
N2631      C3690   1.157   1_545  T
C2633      C2634   1.407       .  A
C2633      C2638   1.416       .  A
C2634      C2635   1.409       .  A
C2634      C2639   1.451       .  S
C2635      C2636   1.423       .  A
C2635      C2642   1.452       .  S
C2636      C2637   1.409       .  A
C2637      C2638   1.407       .  A
C2637      C3704   1.451       .  S
C2638      C2641   1.450       .  S
C2639      N2646   1.157       .  T
C2640      C3701   1.451       .  S
C2640      N2645   1.157       .  T
C2641      N2643   1.157       .  T
C2642      N2644   1.157       .  T
C2647      C2648   1.404       .  A
C2647      C2652   1.427       .  A
C2648      C2649   1.402       .  A
C2648      C2653   1.450       .  S
C2649      C2650   1.416       .  A
C2649      C2656   1.438       .  S
C2650      C2651   1.410       .  A
C2651      C2652   1.413       .  A
C2651      C2654   1.452       .  S
C2652      C2655   1.449       .  S
C2653      N3724   1.157   1_545  T
C2654      N2659   1.157       .  T
C2655      N2657   1.158       .  T
C2656      N2658   1.152       .  T
N2660      C3717   1.157       .  T
C2661      C2662   1.416       .  A
C2661      C2666   1.416       .  A
C2662      C2663   1.401       .  A
C2662      C2667   1.447       .  S
C2663      C2664   1.404       .  A
C2663      C2670   1.451       .  S
C2664      C2665   1.408       .  A
C2665      C2666   1.411       .  A
C2665      C2668   1.450       .  S
C2666      C2669   1.448       .  S
C2667      N2674   1.155       .  T
C2668      N2673   1.157       .  T
C2669      N2671   1.156       .  T
C2670      N2672   1.157       .  T
C2675      C2676   1.416       .  A
C2675      C2680   1.420       .  A
C2676      C2677   1.408       .  A
C2676      C2681   1.450       .  S
C2677      C2678   1.408       .  A
C2677      C2684   1.449       .  S
C2678      C2679   1.408       .  A
C2679      C2680   1.411       .  A
C2679      C2682   1.450       .  S
C2680      C2683   1.449       .  S
C2681      N2688   1.157       .  T
C2682      N2687   1.157       .  T
C2683      N2685   1.157       .  T
C2684      N2686   1.157       .  T
C2689      C2690   1.409       .  A
C2689      C2694   1.410       .  A
C2690      C2691   1.412       .  A
C2690      C2695   1.450       .  S
C2691      C2692   1.422       .  A
C2691      C2698   1.451       .  S
C2692      C2693   1.423       .  A
C2693      C2694   1.410       .  A
C2693      C2696   1.453       .  S
C2694      C2697   1.452       .  S
C2695      N2702   1.157       .  T
C2696      N2701   1.158       .  T
C2697      N2699   1.157       .  T
C2698      N2700   1.157       .  T
C2703      C2704   1.416       .  A
C2703      C2708   1.417       .  A
C2704      C2705   1.418       .  A
C2704      C2709   1.451       .  S
C2705      C2706   1.415       .  A
C2705      C2712   1.448       .  S
C2706      C2707   1.416       .  A
C2707      C2708   1.417       .  A
C2707      C2710   1.450       .  S
C2708      C2711   1.451       .  S
C2709      N2716   1.157       .  T
C2710      N2715   1.157       .  T
C2711      N2713   1.158       .  T
C2712      N2714   1.157       .  T
C2717      C2718   1.409       .  A
C2717      C2722   1.412       .  A
C2718      C2719   1.418       .  A
C2718      C2723   1.449       .  S
C2719      C2720   1.424       .  A
C2719      C2726   1.451       .  S
C2720      C2721   1.420       .  A
C2721      C2722   1.410       .  A
C2721      C2724   1.452       .  S
C2722      C2725   1.452       .  S
C2723      N2730   1.157       .  T
C2724      N2729   1.157       .  T
C2725      N3791   1.157       .  T
C2726      N2728   1.157       .  T
N2727      C3789   1.157       .  T
C2731      C2732   1.414       .  A
C2731      C2736   1.416       .  A
C2732      C2733   1.414       .  A
C2732      C2737   1.448       .  S
C2733      C2734   1.413       .  A
C2733      C2740   1.451       .  S
C2734      C2735   1.413       .  A
C2735      C2736   1.411       .  A
C2735      C2738   1.452       .  S
C2736      C2739   1.452       .  S
C2737      N2744   1.157       .  T
C2738      N2743   1.157       .  T
C2739      N2741   1.157       .  T
C2740      N2742   1.157       .  T
C2745      C2746   1.409       .  A
C2745      C2750   1.412       .  A
C2746      C2747   1.410       .  A
C2746      C2751   1.452       .  S
C2747      C2748   1.414       .  A
C2747      C2754   1.447       .  S
C2748      C2749   1.420       .  A
C2749      C2750   1.413       .  A
C2749      C2752   1.452       .  S
C2750      C2753   1.452       .  S
C2751      N2758   1.157       .  T
C2752      N2757   1.158       .  T
C2753      N2755   1.158       .  T
C2759      C2760   1.417       .  A
C2759      C2764   1.417       .  A
C2760      C2761   1.415       .  A
C2760      C2765   1.449       .  S
C2761      C2762   1.413       .  A
C2761      C2768   1.450       .  S
C2762      C2763   1.416       .  A
C2763      C2764   1.414       .  A
C2763      C2766   1.452       .  S
C2764      C2767   1.451       .  S
C2765      N2772   1.157       .  T
C2766      N2771   1.157       .  T
C2767      N2769   1.157       .  T
C2768      N2770   1.157       .  T
C2773      C2774   1.413       .  A
C2773      C2778   1.415       .  A
C2774      C2775   1.413       .  A
C2774      C2779   1.448       .  S
C2775      C2776   1.413       .  A
C2775      C2782   1.450       .  S
C2776      C2777   1.414       .  A
C2777      C2778   1.412       .  A
C2777      C2780   1.453       .  S
C2778      C2781   1.451       .  S
C2779      N2786   1.157       .  T
C2780      N2785   1.158       .  T
C2781      N2783   1.157       .  T
C2782      N2784   1.157       .  T
C2787      C2788   1.409       .  A
C2787      C2792   1.414       .  A
C2788      C2789   1.416       .  A
C2788      C2793   1.450       .  S
C2789      C2790   1.428       .  A
C2789      C2796   1.452       .  S
C2790      C2791   1.426       .  A
C2791      C2792   1.411       .  A
C2791      C2794   1.453       .  S
C2792      C2795   1.455       .  S
C2793      N3864   1.157       .  T
C2794      N2799   1.158       .  T
C2795      N2797   1.157       .  T
C2796      N2798   1.158       .  T
N2800      C3857   1.157       .  T
C2801      C2802   1.416       .  A
C2801      C2806   1.419       .  A
C2802      C2803   1.414       .  A
C2802      C2807   1.449       .  S
C2803      C2804   1.413       .  A
C2803      C2810   1.448       .  S
C2804      C2805   1.412       .  A
C2805      C2806   1.414       .  A
C2805      C2808   1.451       .  S
C2806      C2809   1.452       .  S
C2807      N2814   1.157       .  T
C2808      N2813   1.157       .  T
C2809      N2811   1.157       .  T
C2810      N2812   1.157       .  T
C2815      C2816   1.416       .  A
C2815      C2820   1.418       .  A
C2816      C2817   1.418       .  A
C2816      C2821   1.447       .  S
C2817      C2818   1.414       .  A
C2817      C2824   1.451       .  S
C2818      C2819   1.413       .  A
C2819      C2820   1.417       .  A
C2819      C2822   1.451       .  S
C2820      C2823   1.450       .  S
C2821      N2828   1.157       .  T
C2822      N2827   1.157       .  T
C2823      N2825   1.157       .  T
C2824      N2826   1.157       .  T
C2829      C2830   1.419       .  A
C2829      C2834   1.420       .  A
C2830      C2831   1.411       .  A
C2830      C2835   1.453       .  S
C2831      C2832   1.414       .  A
C2831      C2838   1.451       .  S
C2832      C2833   1.415       .  A
C2833      C2834   1.418       .  A
C2833      C2836   1.450       .  S
C2834      C2837   1.451       .  S
C2835      N2842   1.157       .  T
C2836      N3905   1.157       .  T
C2837      N2839   1.158       .  T
C2838      N2840   1.157       .  T
N2841      C3900   1.157       .  T
C2843      C2844   1.419       .  A
C2843      C2848   1.422       .  A
C2844      C2845   1.416       .  A
C2844      C2849   1.452       .  S
C2845      C2846   1.412       .  A
C2845      C2852   1.448       .  S
C2846      C2847   1.413       .  A
C2847      C2848   1.416       .  A
C2847      C2850   1.452       .  S
C2848      C2851   1.452       .  S
C2849      N2856   1.157       .  T
C2850      N2855   1.157       .  T
C2851      N2853   1.158       .  T
C2852      N2854   1.157       .  T
C2857      C2858   1.410       .  A
C2857      C2862   1.412       .  A
C2858      C2859   1.418       .  A
C2858      C2863   1.449       .  S
C2859      C2860   1.426       .  A
C2859      C2866   1.450       .  S
C2860      C2861   1.413       .  A
C2861      C2862   1.407       .  A
C2861      C2864   1.445       .  S
C2862      C2865   1.452       .  S
C2863      N2870   1.157       .  T
C2864      N2869   1.157       .  T
C2865      N2867   1.157       .  T
C2866      N2868   1.157       .  T
C2871      C2872   1.414       .  A
C2871      C2876   1.415       .  A
C2872      C2873   1.416       .  A
C2872      C2877   1.448       .  S
C2873      C2874   1.419       .  A
C2873      C2880   1.449       .  S
C2874      C2875   1.405       .  A
C2875      C2876   1.397       .  A
C2875      C2878   1.446       .  S
C2876      C2879   1.451       .  S
C2877      N2884   1.157       .  T
C2878      N2883   1.157       .  T
C2879      N2881   1.157       .  T
C2880      N2882   1.157       .  T
C2885      C2886   1.412       .  A
C2885      C2890   1.411       .  A
C2886      C2887   1.408       .  A
C2886      C2891   1.453       .  S
C2887      C2888   1.418       .  A
C2887      C2894   1.446       .  S
C2888      C2889   1.425       .  A
C2889      C2890   1.414       .  A
C2889      C2892   1.449       .  S
C2890      C2893   1.450       .  S
C2891      N2898   1.157       .  T
C2892      N2897   1.158       .  T
C2893      N3959   1.157       .  T
C2894      N2896   1.155       .  T
N2895      C3957   1.157   1_545  T
C2899      C2900   1.421       .  A
C2899      C2904   1.416       .  A
C2900      C2901   1.407       .  A
C2900      C2905   1.451       .  S
C2901      C2902   1.409       .  A
C2901      C2908   1.448       .  S
C2902      C2903   1.419       .  A
C2903      C2904   1.415       .  A
C2903      C2906   1.449       .  S
C2904      C2907   1.449       .  S
C2905      N2912   1.157       .  T
C2906      N2911   1.157       .  T
C2907      N2909   1.157       .  T
C2908      N2910   1.156       .  T
C2913      C2914   1.407       .  A
C2913      C2918   1.414       .  A
C2914      C2915   1.411       .  A
C2914      C2919   1.451       .  S
C2915      C2916   1.422       .  A
C2915      C2922   1.451       .  S
C2916      C2917   1.413       .  A
C2917      C2918   1.414       .  A
C2918      C2921   1.449       .  S
C2919      N2926   1.157       .  T
C2920      N2925   1.157       .  T
C2921      N2923   1.157       .  T
C2922      N2924   1.157       .  T
C2927      C2928   1.418       .  A
C2927      C2932   1.423       .  A
C2928      C2929   1.406       .  A
C2928      C2933   1.450       .  S
C2929      C2930   1.408       .  A
C2929      C2936   1.451       .  S
C2930      C2931   1.410       .  A
C2931      C2932   1.417       .  A
C2931      C2934   1.450       .  S
C2932      C2935   1.450       .  S
C2933      N2940   1.157       .  T
C2934      N2939   1.157       .  T
C2935      N2937   1.158       .  T
C2936      N2938   1.157       .  T
C2941      C2942   1.411       .  A
C2941      C2946   1.410       .  A
C2942      C2943   1.412       .  A
C2942      C2947   1.451       .  S
C2943      C2944   1.417       .  A
C2943      C2950   1.451       .  S
C2944      C2945   1.415       .  A
C2945      C2946   1.410       .  A
C2945      C4012   1.449       .  S
C2946      C2949   1.450       .  S
C2947      N2954   1.157       .  T
C2948      C4009   1.449       .  S
C2948      N2953   1.157       .  T
C2949      N2951   1.157       .  T
C2950      N2952   1.157       .  T
C2955      C2956   1.420       .  A
C2955      C2960   1.423       .  A
C2956      C2957   1.404       .  A
C2956      C2961   1.450       .  S
C2957      C2958   1.404       .  A
C2957      C2964   1.450       .  S
C2958      C2959   1.410       .  A
C2959      C2960   1.419       .  A
C2959      C2962   1.449       .  S
C2960      C2963   1.450       .  S
C2961      N2968   1.157       .  T
C2962      N2967   1.157       .  T
C2963      N2965   1.157       .  T
C2964      N2966   1.157       .  T
C2969      C2970   1.412       .  A
C2969      C2974   1.408       .  A
C2970      C2971   1.402       .  A
C2970      C2975   1.448       .  S
C2971      C2972   1.409       .  A
C2972      C2973   1.432       .  A
C2973      C2974   1.413       .  A
C2973      C2976   1.449       .  S
C2974      C2977   1.450       .  S
C2976      N2981   1.157       .  T
C2977      N2979   1.157       .  T
C2978      N2980   1.157       .  T
C2983      C2984   1.423       .  A
C2983      C2988   1.418       .  A
C2984      C2985   1.418       .  A
C2984      C2989   1.450       .  S
C2985      C2986   1.410       .  A
C2985      C2992   1.450       .  S
C2986      C2987   1.409       .  A
C2987      C2988   1.408       .  A
C2987      C2990   1.451       .  S
C2988      C2991   1.452       .  S
C2989      N2996   1.158       .  T
C2990      N2995   1.157       .  T
C2991      N2993   1.157       .  T
C2992      N2994   1.157       .  T
C2997      C2998   1.416       .  A
C2997      C3002   1.417       .  A
C2998      C2999   1.415       .  A
C2998      C3003   1.450       .  S
C2999      C3000   1.416       .  A
C2999      C3006   1.450       .  S
C3000      C3001   1.407       .  A
C3001      C3002   1.402       .  A
C3002      C3005   1.450       .  S
C3003      N3010   1.157       .  T
C3004      N3009   1.157       .  T
C3006      N3008   1.157       .  T
C3011      C3012   1.409       .  A
C3011      C3016   1.411       .  A
C3012      C3013   1.407       .  A
C3012      C3017   1.451       .  S
C3013      C3014   1.418       .  A
C3013      C3020   1.453       .  S
C3014      C3015   1.412       .  A
C3015      C3016   1.409       .  A
C3015      C3018   1.450       .  S
C3016      C3019   1.449       .  S
C3017      N3024   1.157       .  T
C3018      N3023   1.157       .  T
C3019      N3021   1.157       .  T
C3020      N3022   1.157       .  T
C3025      C3026   1.411       .  A
C3025      C3030   1.413       .  A
C3026      C3027   1.415       .  A
C3026      C3031   1.451       .  S
C3027      C3028   1.420       .  A
C3027      C3034   1.452       .  S
C3028      C3029   1.416       .  A
C3029      C3030   1.408       .  A
C3029      C3032   1.451       .  S
C3030      C3033   1.452       .  S
C3031      N3038   1.157       .  T
C3032      N3037   1.157       .  T
C3034      N3036   1.158       .  T
C3039      C3040   1.411       .  A
C3039      C3044   1.410       .  A
C3040      C3041   1.413       .  A
C3040      C3045   1.452       .  S
C3041      C3042   1.417       .  A
C3041      C3048   1.448       .  S
C3042      C3043   1.421       .  A
C3043      C3044   1.414       .  A
C3043      C3046   1.451       .  S
C3044      C3047   1.451       .  S
C3045      N3052   1.157       .  T
C3046      N3051   1.157       .  T
C3047      N3049   1.157       .  T
C3048      N4114   1.157       .  T
N3050      C4112   1.157       .  T
C3053      C3054   1.425       .  A
C3053      C3058   1.424       .  A
C3054      C3055   1.415       .  A
C3054      C3059   1.452       .  S
C3055      C3056   1.414       .  A
C3055      C3062   1.453       .  S
C3056      C3057   1.410       .  A
C3057      C3058   1.412       .  A
C3057      C3060   1.449       .  S
C3058      C3061   1.453       .  S
C3059      N3066   1.158       .  T
C3060      N3065   1.157       .  T
C3061      N3063   1.158       .  T
C3062      N4128   1.157       .  T
N3064      C4126   1.157       .  T
C3067      C3068   1.413       .  A
C3067      C3072   1.411       .  A
C3068      C3069   1.413       .  A
C3068      C3073   1.452       .  S
C3069      C3070   1.414       .  A
C3069      C3076   1.449       .  S
C3070      C3071   1.417       .  A
C3071      C3072   1.412       .  A
C3071      C3074   1.452       .  S
C3072      C3075   1.449       .  S
C3073      N3080   1.157       .  T
C3075      N3077   1.156       .  T
C3076      N3078   1.157       .  T
C3081      C3082   1.410       .  A
C3081      C3086   1.412       .  A
C3082      C3083   1.406       .  A
C3082      C3087   1.452       .  S
C3083      C3084   1.414       .  A
C3083      C3090   1.452       .  S
C3084      C3085   1.412       .  A
C3085      C3086   1.412       .  A
C3085      C3088   1.450       .  S
C3086      C3089   1.451       .  S
C3087      N3094   1.157       .  T
C3088      N3093   1.157       .  T
C3089      N3091   1.157       .  T
C3090      N3092   1.157       .  T
C3095      C3096   1.413       .  A
C3095      C3100   1.420       .  A
C3096      C3097   1.406       .  A
C3096      C3101   1.449       .  S
C3097      C3098   1.411       .  A
C3097      C3104   1.450       .  S
C3098      C3099   1.411       .  A
C3099      C3100   1.412       .  A
C3099      C3102   1.451       .  S
C3100      C3103   1.453       .  S
C3101      N3108   1.156       .  T
C3102      N3107   1.157       .  T
C3103      N3105   1.158       .  T
C3104      N3106   1.157       .  T
C3109      C3110   1.412       .  A
C3109      C3114   1.412       .  A
C3110      C3111   1.415       .  A
C3110      C3115   1.451       .  S
C3111      C3112   1.418       .  A
C3111      C3118   1.452       .  S
C3112      C3113   1.414       .  A
C3113      C3114   1.416       .  A
C3113      C3116   1.448       .  S
C3114      C3117   1.447       .  S
C3115      N3122   1.157       .  T
C3116      N3121   1.157       .  T
C3117      N3119   1.156       .  T
C3118      N3120   1.157       .  T
C3123      C3124   1.414       .  A
C3123      C3128   1.412       .  A
C3124      C3125   1.410       .  A
C3124      C3129   1.451       .  S
C3125      C3126   1.410       .  A
C3125      C3132   1.450       .  S
C3126      C3127   1.412       .  A
C3127      C3128   1.407       .  A
C3127      C3130   1.452       .  S
C3128      C3131   1.448       .  S
C3129      N3136   1.157       .  T
C3130      N3135   1.157       .  T
C3131      N3133   1.156       .  T
C3132      N3134   1.157       .  T
C3137      C3138   1.424       .  A
C3137      C3142   1.418       .  A
C3138      C3139   1.415       .  A
C3138      C3143   1.453       .  S
C3139      C3140   1.409       .  A
C3139      C3146   1.450       .  S
C3140      C3141   1.414       .  A
C3141      C3142   1.411       .  A
C3141      C3144   1.452       .  S
C3142      C3145   1.452       .  S
C3143      N3150   1.158       .  T
C3144      N3149   1.157       .  T
C3145      N3147   1.157       .  T
C3151      C3152   1.416       .  A
C3151      C3156   1.413       .  A
C3152      C3153   1.412       .  A
C3152      C3157   1.451       .  S
C3153      C3154   1.412       .  A
C3153      C3160   1.452       .  S
C3154      C3155   1.416       .  A
C3155      C3156   1.417       .  A
C3155      C3158   1.451       .  S
C3156      C3159   1.449       .  S
C3157      N4228   1.157       .  T
C3158      N3163   1.158       .  T
C3159      N3161   1.157       .  T
C3160      N3162   1.157       .  T
N3164      C4221   1.157       .  T
C3165      C3166   1.413       .  A
C3165      C3170   1.415       .  A
C3166      C3167   1.415       .  A
C3166      C3171   1.451       .  S
C3167      C3168   1.417       .  A
C3167      C3174   1.450       .  S
C3168      C3169   1.415       .  A
C3169      C3170   1.417       .  A
C3169      C3172   1.448       .  S
C3170      C3173   1.452       .  S
C3171      N3178   1.157       .  T
C3172      N3177   1.157       .  T
C3173      N3175   1.158       .  T
C3174      N3176   1.157       .  T
C3179      C3180   1.424       .  A
C3179      C3184   1.425       .  A
C3180      C3181   1.416       .  A
C3180      C3185   1.452       .  S
C3181      C3182   1.411       .  A
C3181      C3188   1.451       .  S
C3182      C3183   1.410       .  A
C3183      C3184   1.412       .  A
C3183      C3186   1.453       .  S
C3184      C3187   1.451       .  S
C3185      N3192   1.158       .  T
C3186      N3191   1.157       .  T
C3187      N3189   1.157       .  T
C3188      N3190   1.157       .  T
Zn3193     O3197   1.959   1_554  S
Zn3193     O3198   2.010       .  S
Zn3193     O3202   2.039       .  S
Zn3193     O3209   2.021       .  S
Zn3194     O3197   1.973       .  S
Zn3194     O3199   2.041       .  S
Zn3194     O3201   2.024   1_556  S
Zn3194     O3205   2.059       .  S
Zn3195     O3197   1.964       .  S
Zn3195     O3200   2.032   1_556  S
Zn3195     O3203   2.016       .  S
Zn3195     O3206   2.001       .  S
Zn3196     O3197   1.963       .  S
Zn3196     O3204   2.034       .  S
Zn3196     O3207   2.027       .  S
Zn3196     O3208   2.046   1_556  S
O3198      C3210   1.274       .  A
O3199      C3211   1.277       .  A
O3200      C3212   1.274       .  A
O3201      C3210   1.275       .  A
O3202      C3212   1.275       .  A
O3203      C3211   1.274       .  A
O3204      C3213   1.277       .  A
O3205      C3214   1.278       .  A
O3206      C3213   1.271       .  A
O3207      C3214   1.274       .  A
O3208      C3215   1.278       .  A
O3209      C3215   1.274       .  A
C3210      C4187   1.484       .  S
C3211      C4243   1.512       .  S
C3212      C4229   1.497       .  S
C3213      C4201   1.502       .  S
C3214      C4173   1.493       .  S
C3215      C4218   1.492       .  S
Zn3216     O3220   1.951       .  S
Zn3216     O3221   2.018       .  S
Zn3216     O3225   2.021       .  S
Zn3216     O3232   2.029       .  S
Zn3217     O3220   1.964       .  S
Zn3217     O3222   2.029       .  S
Zn3217     O3224   2.036       .  S
Zn3217     O3228   2.019       .  S
Zn3218     O3220   1.958       .  S
Zn3218     O3223   1.996       .  S
Zn3218     O3226   1.993       .  S
Zn3218     O3229   2.016       .  S
Zn3219     O3220   1.952       .  S
Zn3219     O3227   2.017       .  S
Zn3219     O3230   2.019       .  S
Zn3219     O3231   2.025       .  S
O3221      C3233   1.274       .  A
O3222      C3234   1.276       .  A
O3223      C3235   1.271       .  A
O3224      C3233   1.276       .  A
O3225      C3235   1.274       .  A
O3226      C3234   1.270       .  A
O3227      C3236   1.273       .  A
O3228      C3237   1.274       .  A
O3229      C3236   1.272       .  A
O3230      C3237   1.275       .  A
O3231      C3238   1.274       .  A
O3232      C3238   1.275       .  A
C3233      C4131   1.488       .  S
C3234      C4159   1.490       .  S
C3235      C4145   1.477       .  S
C3236      C4117   1.510       .  S
C3237      C4092   1.496       .  S
C3238      C4103   1.488       .  S
N3239      C3244   1.358   1_545  A
N3239      H3271   1.038       .  S
N3240      C3247   1.352       .  A
N3240      C3248   1.357       .  A
N3241      C3246   1.350   1_545  A
N3241      H3272   1.039       .  S
N3242      C3249   1.350       .  A
N3242      C3250   1.348       .  A
C3243      C3251   1.389       .  A
C3243      C3259   1.422       .  A
C3244      C3260   1.422       .  A
C3244      C3252   1.383       .  A
C3245      C3253   1.386       .  A
C3245      C3262   1.410       .  A
C3246      C3261   1.410       .  A
C3246      C3254   1.387       .  A
C3247      C3259   1.425       .  A
C3247      C3255   1.390       .  A
C3248      C3262   1.415       .  A
C3248      C3256   1.383       .  A
C3249      C3257   1.383       .  A
C3249      C3260   1.411       .  A
C3250      C3258   1.381       .  A
C3250      C3261   1.408       .  A
C3251      H3263   1.075       .  S
C3252      H3264   1.082       .  S
C3253      H3265   1.082       .  S
C3254      H3266   1.082       .  S
C3255      C3256   1.366       .  A
C3255      H3267   1.081       .  S
C3256      H3268   1.080       .  S
C3257      C3258   1.376       .  A
C3257      H3269   1.081       .  S
C3258      H3270   1.079       .  S
C3259      C4033   1.504       .  S
C3260      C4047   1.517       .  S
C3261      C4075   1.488       .  S
C3262      C4061   1.507       .  S
N3273      C3278   1.354       .  A
N3273      C3277   1.349       .  A
N3273      H3305   1.042       .  S
N3274      C3281   1.350       .  A
N3274      C3282   1.355       .  A
N3275      C3280   1.351       .  A
N3275      C3279   1.352       .  A
N3275      H3306   1.042       .  S
N3276      C3283   1.351       .  A
N3276      C3284   1.346       .  A
C3277      C3285   1.385       .  A
C3277      C3293   1.409       .  A
C3278      C3294   1.420       .  A
C3278      C3286   1.389       .  A
C3279      C3287   1.389       .  A
C3279      C3296   1.419       .  A
C3280      C3295   1.411       .  A
C3280      C3288   1.386       .  A
C3281      C3293   1.415       .  A
C3281      C3289   1.382       .  A
C3282      C3296   1.419       .  A
C3282      C3290   1.386       .  A
C3283      C3291   1.385       .  A
C3283      C3294   1.412       .  A
C3284      C3292   1.381       .  A
C3284      C3295   1.407       .  A
C3285      C3286   1.380       .  A
C3285      H3297   1.082       .  S
C3286      H3298   1.082       .  S
C3287      C3288   1.381       .  A
C3287      H3299   1.082       .  S
C3288      H3300   1.082       .  S
C3289      C3290   1.376       .  A
C3289      H3301   1.077       .  S
C3290      H3302   1.082       .  S
C3291      C3292   1.380       .  A
C3291      H3303   1.082       .  S
C3292      H3304   1.078       .  S
C3293      C3977   1.496       .  S
C3294      C3991   1.515       .  S
C3295      C4005   1.493       .  S
C3296      C4019   1.516       .  S
N3307      C3312   1.358   1_455  A
N3307      H3339   1.038       .  S
N3308      C3315   1.350       .  A
N3308      C3316   1.354       .  A
N3309      C3314   1.354   1_455  A
N3309      H3340   1.042       .  S
N3310      C3317   1.349       .  A
N3310      C3318   1.349       .  A
C3311      C3319   1.390       .  A
C3311      C3327   1.425       .  A
C3312      C3328   1.420       .  A
C3312      C3320   1.385       .  A
C3313      C3321   1.388       .  A
C3313      C3330   1.423       .  A
C3314      C3329   1.421       .  A
C3314      C3322   1.388       .  A
C3315      C3327   1.414       .  A
C3315      C3323   1.386       .  A
C3316      C3330   1.417       .  A
C3316      C3324   1.383       .  A
C3317      C3325   1.383       .  A
C3317      C3328   1.406       .  A
C3318      C3326   1.387       .  A
C3318      C3329   1.414       .  A
C3319      H3331   1.082       .  S
C3320      H3332   1.082       .  S
C3321      H3333   1.083       .  S
C3322      H3334   1.082       .  S
C3323      C3324   1.373       .  A
C3323      H3335   1.077       .  S
C3324      H3336   1.082       .  S
C3325      C3326   1.375       .  A
C3325      H3337   1.080       .  S
C3326      H3338   1.082       .  S
C3327      C3935   1.501       .  S
C3328      C3921   1.505       .  S
C3329      C3966   1.510       .  S
C3330      C3952   1.520       .  S
C3341      C3910   1.500       .  S
C3341      C3346   1.408       .  A
C3342      C4089   1.488       .  S
C3342      C3343   1.399       .  A
C3343      C3344   1.396       .  A
C3343      H3348   1.085       .  S
C3344      C4064   1.494       .  S
C3345      C4022   1.493       .  S
C3345      C3346   1.405       .  A
C3346      H3347   1.084       .  S
C3349      C4120   1.498       .  S
C3349      C3354   1.408       .  A
C3350      C3896   1.501       .  S
C3350      C3351   1.403       .  A
C3351      C3352   1.404       .  A
C3351      H3356   1.084       .  S
C3352      C3949   1.500       .  S
C3353      C4008   1.499       .  S
C3353      C3354   1.404       .  A
C3354      H3355   1.084       .  S
C3357      C4246   1.493       .  S
C3357      C3358   1.419       .  A
C3357      C3362   1.405       .  A
C3358      C3879   1.509       .  S
C3358      C3359   1.409       .  A
C3359      C3360   1.412       .  A
C3359      H3364   1.084       .  S
C3360      C4050   1.495       .  S
C3360      C3361   1.423       .  A
C3361      C3924   1.514       .  S
C3361      C3362   1.404       .  A
C3362      H3363   1.085       .  S
C3365      C4162   1.486       .  S
C3365      C3366   1.413       .  A
C3365      C3370   1.401       .  A
C3366      C3868   1.497       .  S
C3366      C3367   1.398       .  A
C3367      C3368   1.406       .  A
C3367      H3372   1.085       .  S
C3368      C4078   1.490       .  S
C3368      C3369   1.424       .  A
C3369      C3963   1.509       .  S
C3369      C3370   1.405       .  A
C3370      H3371   1.085       .  S
C3373      C4176   1.502       .  S
C3373      C3378   1.408       .  A
C3374      C3851   1.497       .  S
C3374      C3375   1.405       .  A
C3375      C3376   1.398       .  A
C3375      H3380   1.085       .  S
C3376      C3938   1.498       .  S
C3377      C3994   1.493       .  S
C3377      C3378   1.404       .  A
C3378      H3379   1.084       .  S
C3381      C4204   1.491       .  S
C3381      C3386   1.398       .  A
C3382      C3837   1.493       .  S
C3382      C3383   1.399       .  A
C3383      C3384   1.407       .  A
C3383      H3388   1.085       .  S
C3384      C3980   1.503       .  S
C3385      C4036   1.517       .  S
C3385      C3386   1.407       .  A
C3386      H3387   1.083       .  S
Zn3389     O3393   1.970       .  S
Zn3389     O3394   2.054       .  S
Zn3389     O3398   2.026       .  S
Zn3389     O3405   2.044       .  S
Zn3390     O3393   1.966       .  S
Zn3390     O3395   2.030       .  S
Zn3390     O3397   2.024       .  S
Zn3390     O3401   2.044       .  S
Zn3391     O3393   1.969       .  S
Zn3391     O3396   2.027       .  S
Zn3391     O3399   2.012       .  S
Zn3391     O3402   2.038       .  S
Zn3392     O3393   1.950       .  S
Zn3392     O3400   2.029       .  S
Zn3392     O3403   2.014       .  S
Zn3392     O3404   2.025       .  S
O3394      C3406   1.278       .  A
O3395      C3407   1.277       .  A
O3396      C3408   1.276       .  A
O3397      C3406   1.274       .  A
O3398      C3408   1.276       .  A
O3399      C3407   1.272       .  A
O3400      C3409   1.274       .  A
O3401      C3410   1.276       .  A
O3402      C3409   1.275       .  A
O3403      C3410   1.275       .  A
O3404      C3411   1.276       .  A
O3405      C3411   1.277       .  A
C3406      C3826   1.498       .  S
C3407      C3809   1.485       .  S
C3408      C3798   1.489       .  S
C3409      C3907   1.510       .  S
C3410      C3893   1.506       .  S
C3411      C3865   1.502       .  S
Zn3412     O3416   1.972   1_556  S
Zn3412     O3417   2.042       .  S
Zn3412     O3421   2.024   1_556  S
Zn3412     O3428   2.023       .  S
Zn3413     O3416   1.977   1_556  S
Zn3413     O3418   2.032   1_556  S
Zn3413     O3420   2.050       .  S
Zn3413     O3424   2.045       .  S
Zn3414     O3416   1.957       .  S
Zn3414     O3419   2.036       .  S
Zn3414     O3422   2.005       .  S
Zn3414     O3425   2.046       .  S
Zn3415     O3416   1.962   1_556  S
Zn3415     O3423   2.037   1_556  S
Zn3415     O3426   2.012       .  S
Zn3415     O3427   2.017       .  S
O3417      C3429   1.276       .  A
O3418      C3430   1.275       .  A
O3419      C3431   1.277       .  A
O3420      C3429   1.277       .  A
O3421      C3431   1.273       .  A
O3422      C3430   1.273       .  A
O3423      C3432   1.274       .  A
O3424      C3433   1.277       .  A
O3425      C3432   1.276       .  A
O3426      C3433   1.273       .  A
O3427      C3434   1.274       .  A
O3428      C3434   1.274       .  A
C3429      C3882   1.499       .  S
C3430      C3756   1.503       .  S
C3431      C3784   1.507       .  S
C3432      C3767   1.504       .  S
C3433      C3840   1.491       .  S
C3434      C3854   1.516       .  S
N3435      C3439   1.350       .  A
N3435      H3467   1.040       .  S
N3436      C3443   1.351       .  A
N3436      C3444   1.348       .  A
N3437      C3441   1.359       .  A
N3437      H3468   1.037       .  S
N3438      C3445   1.353       .  A
N3438      C3446   1.351       .  A
C3439      C3447   1.389       .  A
C3439      C3455   1.411       .  A
C3440      C3456   1.399       .  A
C3440      C3448   1.383       .  A
C3441      C3449   1.383       .  A
C3441      C3458   1.423       .  A
C3442      C3457   1.432       .  A
C3442      C3450   1.391       .  A
C3443      C3455   1.411       .  A
C3443      C3451   1.382       .  A
C3444      C3458   1.412       .  A
C3444      C3452   1.384       .  A
C3445      C3453   1.382       .  A
C3445      C3456   1.410       .  A
C3446      C3454   1.389       .  A
C3446      C3457   1.421       .  A
C3447      H3459   1.082       .  S
C3448      H3460   1.082       .  S
C3449      H3461   1.081       .  S
C3450      H3462   1.076       .  S
C3451      C3452   1.376       .  A
C3451      H3463   1.079       .  S
C3452      H3464   1.079       .  S
C3453      C3454   1.368       .  A
C3453      H3465   1.079       .  S
C3454      H3466   1.082       .  S
C3455      C3725   1.499       .  S
C3456      C3697   1.492       .  S
C3457      C3714   1.509       .  S
C3458      C3739   1.510       .  S
N3469      C3474   1.357       .  A
N3469      C3473   1.357       .  A
N3469      H3501   1.041       .  S
N3470      C3477   1.349       .  A
N3470      C3478   1.351       .  A
N3471      C3476   1.354       .  A
N3471      C3475   1.355       .  A
N3471      H3502   1.042       .  S
N3472      C3479   1.357       .  A
N3472      C3480   1.357       .  A
C3473      C3481   1.389       .  A
C3473      C3489   1.427       .  A
C3474      C3490   1.423       .  A
C3474      C3482   1.386       .  A
C3475      C3483   1.388       .  A
C3475      C3492   1.425       .  A
C3476      C3491   1.420       .  A
C3476      C3484   1.388       .  A
C3477      C3489   1.414       .  A
C3477      C3485   1.387       .  A
C3478      C3492   1.415       .  A
C3478      C3486   1.383       .  A
C3479      C3487   1.385       .  A
C3479      C3490   1.424       .  A
C3480      C3488   1.387       .  A
C3480      C3491   1.426       .  A
C3481      C3482   1.375       .  A
C3481      H3493   1.081       .  S
C3482      H3494   1.082       .  S
C3483      C3484   1.382       .  A
C3483      H3495   1.082       .  S
C3484      H3496   1.081       .  S
C3485      C3486   1.375       .  A
C3485      H3497   1.076       .  S
C3486      H3498   1.082       .  S
C3487      C3488   1.379       .  A
C3487      H3499   1.082       .  S
C3488      H3500   1.082       .  S
C3489      C3641   1.509       .  S
C3490      C3669   1.525       .  S
C3491      C3686   1.516       .  S
C3492      C3655   1.523       .  S
C3503      C4106   1.504       .  S
C3503      C3508   1.398       .  A
C3504      C3823   1.503       .  S
C3504      C3505   1.410       .  A
C3505      C3506   1.412       .  A
C3505      H3510   1.082       .  S
C3506      C3672   1.529       .  S
C3507      C3700   1.495       .  S
C3507      C3508   1.403       .  A
C3508      H3509   1.085       .  S
N3511      C3515   1.350       .  A
N3511      H3543   1.044       .  S
N3512      C3519   1.347       .  A
N3512      C3520   1.347       .  A
N3513      C3517   1.349       .  A
N3513      H3544   1.042       .  S
N3514      C3521   1.352       .  A
N3514      C3522   1.350       .  A
C3515      C3523   1.385       .  A
C3515      C3531   1.413       .  A
C3516      C3532   1.419       .  A
C3516      C3524   1.388       .  A
C3517      C3525   1.389       .  A
C3517      C3534   1.413       .  A
C3518      C3533   1.405       .  A
C3518      C3526   1.385       .  A
C3519      C3531   1.407       .  A
C3519      C3527   1.384       .  A
C3520      C3534   1.411       .  A
C3520      C3528   1.386       .  A
C3521      C3529   1.390       .  A
C3521      C3532   1.422       .  A
C3522      C3530   1.374       .  A
C3522      C3533   1.408       .  A
C3523      H3535   1.082       .  S
C3524      H3536   1.082       .  S
C3525      H3537   1.082       .  S
C3526      H3538   1.082       .  S
C3527      C3528   1.376       .  A
C3527      H3539   1.081       .  S
C3528      H3540   1.081       .  S
C3529      C3530   1.378       .  A
C3529      H3541   1.082       .  S
C3530      H3542   1.073       .  S
C3531      C3616   1.497       .  S
C3532      C3588   1.523       .  S
C3533      C3602   1.498       .  S
C3534      C3627   1.494       .  S
C3545      C3781   1.493       .  S
C3545      C3550   1.406       .  A
C3546      C4215   1.497       .  S
C3546      C3547   1.396       .  A
C3547      C3548   1.408       .  A
C3547      H3552   1.082       .  S
C3548      C3711   1.504       .  S
C3549      C3683   1.525       .  S
C3549      C3550   1.412       .  A
C3550      H3551   1.084       .  S
C3553      C3795   1.496       .  S
C3553      C3554   1.419       .  A
C3553      C3558   1.402       .  A
C3554      C4148   1.483       .  S
C3554      C3555   1.405       .  A
C3555      C3556   1.394       .  A
C3555      H3560   1.085       .  S
C3556      C3613   1.491       .  S
C3556      C3557   1.411       .  A
C3557      C3728   1.479       .  S
C3557      C3558   1.399       .  A
C3558      H3559   1.085       .  S
C3561      C4190   1.483       .  S
C3561      C3562   1.416       .  A
C3561      C3566   1.397       .  A
C3562      C3753   1.489       .  S
C3562      C3563   1.405       .  A
C3563      C3564   1.399       .  A
C3563      H3568   1.084       .  S
C3564      C3742   1.489       .  S
C3564      C3565   1.411       .  A
C3565      C3630   1.476       .  S
C3565      C3566   1.392       .  A
C3566      H3567   1.085       .  S
C3569      C3812   1.496       .  S
C3569      C3574   1.401       .  A
C3570      C4134   1.498       .  S
C3570      C3571   1.407       .  A
C3571      C3572   1.408       .  A
C3571      H3576   1.084       .  S
C3572      C3644   1.512       .  S
C3573      C3585   1.488       .  S
C3573      C3574   1.400       .  A
C3574      H3575   1.085       .  S
C3577      C4232   1.500       .  S
C3577      C3582   1.408       .  A
C3578      C3770   1.503       .  S
C3578      C3579   1.407       .  A
C3579      C3580   1.407       .  A
C3579      H3584   1.084       .  S
C3580      C3599   1.502       .  S
C3581      C3658   1.510       .  S
C3581      C3582   1.407       .  A
C3582      H3583   1.084       .  S
C3585      C3586   1.405       .  A
C3585      C3590   1.405       .  A
C3586      C3587   1.408       .  A
C3587      C3588   1.428       .  A
C3587      C3594   1.446       .  S
C3588      C3589   1.425       .  A
C3589      C3590   1.415       .  A
C3589      C3592   1.451       .  S
C3590      C3593   1.449       .  S
C3591      N3598   1.157       .  T
C3592      N3597   1.157       .  T
C3593      N3595   1.157       .  T
C3599      C3600   1.414       .  A
C3599      C3604   1.418       .  A
C3600      C3601   1.410       .  A
C3600      C3605   1.450       .  S
C3601      C3602   1.411       .  A
C3601      C3608   1.449       .  S
C3602      C3603   1.410       .  A
C3603      C3604   1.414       .  A
C3603      C3606   1.450       .  S
C3604      C3607   1.451       .  S
C3605      N3612   1.157       .  T
C3606      N3611   1.157       .  T
C3607      N3609   1.157       .  T
C3608      N3610   1.157       .  T
C3613      C3614   1.413       .  A
C3613      C3618   1.408       .  A
C3614      C3615   1.415       .  A
C3614      C3619   1.449       .  S
C3615      C3616   1.415       .  A
C3615      C3622   1.450       .  S
C3616      C3617   1.411       .  A
C3617      C3618   1.403       .  A
C3617      C3620   1.450       .  S
C3618      C3621   1.448       .  S
C3619      N3626   1.157       .  T
C3620      N3625   1.157       .  T
C3621      N3623   1.157       .  T
C3622      N3624   1.157       .  T
C3627      C3628   1.417       .  A
C3627      C3632   1.415       .  A
C3628      C3629   1.410       .  A
C3628      C3633   1.450       .  S
C3629      C3630   1.409       .  A
C3629      C3636   1.449       .  S
C3630      C3631   1.401       .  A
C3631      C3632   1.397       .  A
C3631      C3634   1.449       .  S
C3632      C3635   1.448       .  S
C3633      N3640   1.157       .  T
C3634      N3639   1.157       .  T
C3635      N3637   1.156       .  T
C3636      N3638   1.157       .  T
C3641      C3642   1.414       .  A
C3641      C3646   1.415       .  A
C3642      C3643   1.417       .  A
C3642      C3647   1.449       .  S
C3643      C3644   1.423       .  A
C3643      C3650   1.451       .  S
C3644      C3645   1.414       .  A
C3645      C3646   1.407       .  A
C3645      C3648   1.445       .  S
C3646      C3649   1.453       .  S
C3647      N3654   1.157       .  T
C3648      N3653   1.157   1_655  T
C3649      N3651   1.157       .  T
C3650      N3652   1.157       .  T
C3655      C3656   1.426       .  A
C3655      C3660   1.418       .  A
C3656      C3657   1.415       .  A
C3656      C3661   1.449       .  S
C3657      C3658   1.411       .  A
C3658      C3659   1.417       .  A
C3659      C3660   1.413       .  A
C3659      C3662   1.450       .  S
C3660      C3663   1.453       .  S
C3661      N3668   1.158       .  T
C3662      N3667   1.157       .  T
C3663      N3665   1.157       .  T
C3664      N3666   1.157       .  T
C3669      C3670   1.417       .  A
C3669      C3674   1.415       .  A
C3670      C3671   1.418       .  A
C3670      C3675   1.451       .  S
C3671      C3672   1.428       .  A
C3671      C3678   1.451       .  S
C3672      C3673   1.416       .  A
C3673      C3674   1.412       .  A
C3674      C3677   1.443       .  S
C3675      N3682   1.157       .  T
C3676      N3681   1.157       .  T
C3678      N3680   1.158       .  T
C3683      C3684   1.424       .  A
C3683      C3688   1.419       .  A
C3684      C3685   1.416       .  A
C3684      C3689   1.450       .  S
C3685      C3686   1.412       .  A
C3685      C3692   1.452       .  S
C3686      C3687   1.417       .  A
C3687      C3688   1.422       .  A
C3687      C3690   1.450       .  S
C3689      N3696   1.157       .  T
C3691      N3693   1.157       .  T
C3692      N3694   1.157       .  T
C3697      C3698   1.407       .  A
C3697      C3702   1.416       .  A
C3698      C3699   1.409       .  A
C3698      C3703   1.451       .  S
C3699      C3700   1.423       .  A
C3699      C3706   1.452       .  S
C3700      C3701   1.409       .  A
C3701      C3702   1.407       .  A
C3702      C3705   1.450       .  S
C3703      N3710   1.157       .  T
C3704      N3709   1.157   1_545  T
C3705      N3707   1.157       .  T
C3706      N3708   1.157       .  T
C3711      C3712   1.404       .  A
C3711      C3716   1.427       .  A
C3712      C3713   1.402       .  A
C3712      C3717   1.450       .  S
C3713      C3714   1.416       .  A
C3713      C3720   1.438       .  S
C3714      C3715   1.410       .  A
C3715      C3716   1.413       .  A
C3715      C3718   1.452       .  S
C3716      C3719   1.449       .  S
C3718      N3723   1.157       .  T
C3719      N3721   1.158       .  T
C3720      N3722   1.152       .  T
C3725      C3726   1.416       .  A
C3725      C3730   1.416       .  A
C3726      C3727   1.401       .  A
C3726      C3731   1.447       .  S
C3727      C3728   1.404       .  A
C3727      C3734   1.451       .  S
C3728      C3729   1.408       .  A
C3729      C3730   1.411       .  A
C3729      C3732   1.450       .  S
C3730      C3733   1.448       .  S
C3731      N3738   1.156       .  T
C3732      N3737   1.157       .  T
C3733      N3735   1.156       .  T
C3734      N3736   1.157       .  T
C3739      C3740   1.416       .  A
C3739      C3744   1.420       .  A
C3740      C3741   1.408       .  A
C3740      C3745   1.450       .  S
C3741      C3742   1.408       .  A
C3741      C3748   1.449       .  S
C3742      C3743   1.408       .  A
C3743      C3744   1.411       .  A
C3743      C3746   1.450       .  S
C3744      C3747   1.449       .  S
C3745      N3752   1.157       .  T
C3746      N3751   1.157       .  T
C3747      N3749   1.156       .  T
C3748      N3750   1.157       .  T
C3753      C3754   1.408       .  A
C3753      C3758   1.410       .  A
C3754      C3755   1.412       .  A
C3754      C3759   1.450       .  S
C3755      C3756   1.422       .  A
C3755      C3762   1.451       .  S
C3756      C3757   1.423       .  A
C3757      C3758   1.410       .  A
C3757      C3760   1.453       .  S
C3758      C3761   1.452       .  S
C3759      N3766   1.157       .  T
C3760      N3765   1.158       .  T
C3761      N3763   1.157       .  T
C3762      N3764   1.157       .  T
C3767      C3768   1.416       .  A
C3767      C3772   1.417       .  A
C3768      C3769   1.418       .  A
C3768      C3773   1.451       .  S
C3769      C3770   1.415       .  A
C3769      C3776   1.448       .  S
C3770      C3771   1.416       .  A
C3771      C3772   1.417       .  A
C3771      C3774   1.450       .  S
C3772      C3775   1.451       .  S
C3773      N3780   1.157       .  T
C3774      N3779   1.157       .  T
C3775      N3777   1.158       .  T
C3776      N3778   1.157       .  T
C3781      C3782   1.409       .  A
C3781      C3786   1.412       .  A
C3782      C3783   1.418       .  A
C3782      C3787   1.449       .  S
C3783      C3784   1.424       .  A
C3783      C3790   1.451       .  S
C3784      C3785   1.420       .  A
C3785      C3786   1.410       .  A
C3785      C3788   1.452       .  S
C3786      C3789   1.452       .  S
C3787      N3794   1.157       .  T
C3788      N3793   1.158       .  T
C3790      N3792   1.157       .  T
C3795      C3796   1.414       .  A
C3795      C3800   1.416       .  A
C3796      C3797   1.414       .  A
C3796      C3801   1.448       .  S
C3797      C3798   1.413       .  A
C3797      C3804   1.451       .  S
C3798      C3799   1.413       .  A
C3799      C3800   1.411       .  A
C3799      C3802   1.452       .  S
C3800      C3803   1.452       .  S
C3801      N3808   1.157       .  T
C3802      N3807   1.157       .  T
C3803      N3805   1.157       .  T
C3804      N3806   1.157       .  T
C3809      C3810   1.409       .  A
C3809      C3814   1.413       .  A
C3810      C3811   1.410       .  A
C3810      C3815   1.451       .  S
C3811      C3812   1.414       .  A
C3811      C3818   1.448       .  S
C3812      C3813   1.419       .  A
C3813      C3814   1.413       .  A
C3813      C3816   1.452       .  S
C3814      C3817   1.452       .  S
C3815      N3822   1.157       .  T
C3816      N3821   1.158       .  T
C3817      N3819   1.158       .  T
C3823      C3824   1.417       .  A
C3823      C3828   1.417       .  A
C3824      C3825   1.415       .  A
C3824      C3829   1.449       .  S
C3825      C3826   1.413       .  A
C3825      C3832   1.450       .  S
C3826      C3827   1.416       .  A
C3827      C3828   1.415       .  A
C3827      C3830   1.452       .  S
C3828      C3831   1.451       .  S
C3829      N3836   1.157       .  T
C3830      N3835   1.157       .  T
C3831      N3833   1.157       .  T
C3832      N3834   1.157       .  T
C3837      C3838   1.413       .  A
C3837      C3842   1.415       .  A
C3838      C3839   1.413       .  A
C3838      C3843   1.448       .  S
C3839      C3840   1.413       .  A
C3839      C3846   1.450       .  S
C3840      C3841   1.414       .  A
C3841      C3842   1.413       .  A
C3841      C3844   1.453       .  S
C3842      C3845   1.451       .  S
C3843      N3850   1.157       .  T
C3844      N3849   1.158       .  T
C3845      N3847   1.157       .  T
C3846      N3848   1.157       .  T
C3851      C3852   1.409       .  A
C3851      C3856   1.414       .  A
C3852      C3853   1.416       .  A
C3852      C3857   1.450       .  S
C3853      C3854   1.428       .  A
C3853      C3860   1.452       .  S
C3854      C3855   1.426       .  A
C3855      C3856   1.411       .  A
C3855      C3858   1.453       .  S
C3856      C3859   1.455       .  S
C3858      N3863   1.158       .  T
C3859      N3861   1.157       .  T
C3860      N3862   1.158       .  T
C3865      C3866   1.416       .  A
C3865      C3870   1.419       .  A
C3866      C3867   1.414       .  A
C3866      C3871   1.449       .  S
C3867      C3868   1.413       .  A
C3867      C3874   1.449       .  S
C3868      C3869   1.412       .  A
C3869      C3870   1.414       .  A
C3869      C3872   1.451       .  S
C3870      C3873   1.452       .  S
C3871      N3878   1.157       .  T
C3872      N3877   1.157       .  T
C3873      N3875   1.157       .  T
C3874      N3876   1.157       .  T
C3879      C3880   1.416       .  A
C3879      C3884   1.418       .  A
C3880      C3881   1.418       .  A
C3880      C3885   1.447       .  S
C3881      C3882   1.414       .  A
C3881      C3888   1.451       .  S
C3882      C3883   1.413       .  A
C3883      C3884   1.417       .  A
C3883      C3886   1.451       .  S
C3884      C3887   1.450       .  S
C3885      N3892   1.157       .  T
C3886      N3891   1.157       .  T
C3887      N3889   1.157       .  T
C3888      N3890   1.157       .  T
C3893      C3894   1.420       .  A
C3893      C3898   1.420       .  A
C3894      C3895   1.411       .  A
C3894      C3899   1.453       .  S
C3895      C3896   1.414       .  A
C3895      C3902   1.451       .  S
C3896      C3897   1.415       .  A
C3897      C3898   1.418       .  A
C3897      C3900   1.450       .  S
C3898      C3901   1.451       .  S
C3899      N3906   1.157       .  T
C3901      N3903   1.158       .  T
C3902      N3904   1.157       .  T
C3907      C3908   1.420       .  A
C3907      C3912   1.422       .  A
C3908      C3909   1.416       .  A
C3908      C3913   1.452       .  S
C3909      C3910   1.412       .  A
C3909      C3916   1.448       .  S
C3910      C3911   1.413       .  A
C3911      C3912   1.416       .  A
C3911      C3914   1.452       .  S
C3912      C3915   1.452       .  S
C3913      N3920   1.157       .  T
C3914      N3919   1.157       .  T
C3915      N3917   1.158       .  T
C3916      N3918   1.157       .  T
C3921      C3922   1.410       .  A
C3921      C3926   1.412       .  A
C3922      C3923   1.419       .  A
C3922      C3927   1.449       .  S
C3923      C3924   1.426       .  A
C3923      C3930   1.450       .  S
C3924      C3925   1.414       .  A
C3925      C3926   1.407       .  A
C3925      C3928   1.445       .  S
C3926      C3929   1.452       .  S
C3927      N3934   1.157       .  T
C3928      N3933   1.157       .  T
C3929      N3931   1.157       .  T
C3930      N3932   1.157       .  T
C3935      C3936   1.414       .  A
C3935      C3940   1.416       .  A
C3936      C3937   1.416       .  A
C3936      C3941   1.448       .  S
C3937      C3938   1.419       .  A
C3937      C3944   1.449       .  S
C3938      C3939   1.405       .  A
C3939      C3940   1.398       .  A
C3939      C3942   1.446       .  S
C3940      C3943   1.451       .  S
C3941      N3948   1.157       .  T
C3942      N3947   1.157       .  T
C3943      N3945   1.157       .  T
C3944      N3946   1.157       .  T
C3949      C3950   1.412       .  A
C3949      C3954   1.410       .  A
C3950      C3951   1.408       .  A
C3950      C3955   1.453       .  S
C3951      C3952   1.418       .  A
C3951      C3958   1.446       .  S
C3952      C3953   1.425       .  A
C3953      C3954   1.414       .  A
C3953      C3956   1.449       .  S
C3954      C3957   1.450       .  S
C3955      N3962   1.157       .  T
C3956      N3961   1.158       .  T
C3958      N3960   1.155       .  T
C3963      C3964   1.421       .  A
C3963      C3968   1.416       .  A
C3964      C3965   1.408       .  A
C3964      C3969   1.451       .  S
C3965      C3966   1.409       .  A
C3965      C3972   1.448       .  S
C3966      C3967   1.418       .  A
C3967      C3968   1.415       .  A
C3967      C3970   1.449       .  S
C3968      C3971   1.449       .  S
C3969      N3976   1.157       .  T
C3970      N3975   1.157       .  T
C3971      N3973   1.157       .  T
C3972      N3974   1.156       .  T
C3977      C3978   1.407       .  A
C3977      C3982   1.414       .  A
C3978      C3979   1.411       .  A
C3978      C3983   1.451       .  S
C3979      C3980   1.422       .  A
C3979      C3986   1.451       .  S
C3980      C3981   1.413       .  A
C3981      C3982   1.414       .  A
C3982      C3985   1.449       .  S
C3983      N3990   1.157       .  T
C3984      N3989   1.157       .  T
C3985      N3987   1.157       .  T
C3986      N3988   1.157       .  T
C3991      C3992   1.418       .  A
C3991      C3996   1.423       .  A
C3992      C3993   1.406       .  A
C3992      C3997   1.450       .  S
C3993      C3994   1.408       .  A
C3993      C4000   1.451       .  S
C3994      C3995   1.410       .  A
C3995      C3996   1.417       .  A
C3995      C3998   1.450       .  S
C3996      C3999   1.450       .  S
C3997      N4004   1.157       .  T
C3998      N4003   1.157       .  T
C3999      N4001   1.158       .  T
C4000      N4002   1.157       .  T
C4005      C4006   1.411       .  A
C4005      C4010   1.410       .  A
C4006      C4007   1.412       .  A
C4006      C4011   1.451       .  S
C4007      C4008   1.417       .  A
C4007      C4014   1.451       .  S
C4008      C4009   1.415       .  A
C4009      C4010   1.410       .  A
C4010      C4013   1.450       .  S
C4011      N4018   1.157       .  T
C4012      N4017   1.157   1_545  T
C4013      N4015   1.157       .  T
C4014      N4016   1.157       .  T
C4019      C4020   1.421       .  A
C4019      C4024   1.423       .  A
C4020      C4021   1.404       .  A
C4020      C4025   1.450       .  S
C4021      C4022   1.404       .  A
C4021      C4028   1.450       .  S
C4022      C4023   1.410       .  A
C4023      C4024   1.419       .  A
C4023      C4026   1.449       .  S
C4024      C4027   1.450       .  S
C4025      N4032   1.157       .  T
C4026      N4031   1.157       .  T
C4027      N4029   1.157       .  T
C4028      N4030   1.157       .  T
C4033      C4034   1.412       .  A
C4033      C4038   1.408       .  A
C4034      C4035   1.402       .  A
C4034      C4039   1.448       .  S
C4035      C4036   1.409       .  A
C4036      C4037   1.432       .  A
C4037      C4038   1.413       .  A
C4037      C4040   1.449       .  S
C4038      C4041   1.450       .  S
C4040      N4045   1.157       .  T
C4041      N4043   1.157       .  T
C4042      N4044   1.157       .  T
C4047      C4048   1.423       .  A
C4047      C4052   1.418       .  A
C4048      C4049   1.418       .  A
C4048      C4053   1.450       .  S
C4049      C4050   1.410       .  A
C4049      C4056   1.450       .  S
C4050      C4051   1.409       .  A
C4051      C4052   1.407       .  A
C4051      C4054   1.451       .  S
C4052      C4055   1.452       .  S
C4053      N4060   1.157       .  T
C4054      N4059   1.157       .  T
C4055      N4057   1.157       .  T
C4056      N4058   1.157       .  T
C4061      C4062   1.416       .  A
C4061      C4066   1.417       .  A
C4062      C4063   1.415       .  A
C4062      C4067   1.450       .  S
C4063      C4064   1.416       .  A
C4063      C4070   1.450       .  S
C4064      C4065   1.407       .  A
C4065      C4066   1.402       .  A
C4066      C4069   1.450       .  S
C4067      N4074   1.157       .  T
C4068      N4073   1.157       .  T
C4070      N4072   1.157       .  T
C4075      C4076   1.408       .  A
C4075      C4080   1.412       .  A
C4076      C4077   1.407       .  A
C4076      C4081   1.451       .  S
C4077      C4078   1.418       .  A
C4077      C4084   1.453       .  S
C4078      C4079   1.412       .  A
C4079      C4080   1.408       .  A
C4079      C4082   1.450       .  S
C4080      C4083   1.449       .  S
C4081      N4088   1.157       .  T
C4082      N4087   1.157       .  T
C4083      N4085   1.157       .  T
C4084      N4086   1.157       .  T
C4089      C4090   1.411       .  A
C4089      C4094   1.413       .  A
C4090      C4091   1.414       .  A
C4090      C4095   1.451       .  S
C4091      C4092   1.419       .  A
C4091      C4098   1.452       .  S
C4092      C4093   1.416       .  A
C4093      C4094   1.408       .  A
C4093      C4096   1.451       .  S
C4094      C4097   1.452       .  S
C4095      N4102   1.157       .  T
C4096      N4101   1.157       .  T
C4098      N4100   1.158       .  T
C4103      C4104   1.411       .  A
C4103      C4108   1.410       .  A
C4104      C4105   1.413       .  A
C4104      C4109   1.452       .  S
C4105      C4106   1.417       .  A
C4105      C4112   1.448       .  S
C4106      C4107   1.421       .  A
C4107      C4108   1.414       .  A
C4107      C4110   1.451       .  S
C4108      C4111   1.451       .  S
C4109      N4116   1.157       .  T
C4110      N4115   1.157       .  T
C4111      N4113   1.157       .  T
C4117      C4118   1.425       .  A
C4117      C4122   1.424       .  A
C4118      C4119   1.415       .  A
C4118      C4123   1.452       .  S
C4119      C4120   1.414       .  A
C4119      C4126   1.453       .  S
C4120      C4121   1.410       .  A
C4121      C4122   1.412       .  A
C4121      C4124   1.449       .  S
C4122      C4125   1.453       .  S
C4123      N4130   1.158       .  T
C4124      N4129   1.157       .  T
C4125      N4127   1.158       .  T
C4131      C4132   1.413       .  A
C4131      C4136   1.411       .  A
C4132      C4133   1.413       .  A
C4132      C4137   1.452       .  S
C4133      C4134   1.415       .  A
C4133      C4140   1.449       .  S
C4134      C4135   1.417       .  A
C4135      C4136   1.411       .  A
C4135      C4138   1.452       .  S
C4136      C4139   1.449       .  S
C4137      N4144   1.157       .  T
C4139      N4141   1.156       .  T
C4140      N4142   1.157       .  T
C4145      C4146   1.410       .  A
C4145      C4150   1.412       .  A
C4146      C4147   1.406       .  A
C4146      C4151   1.452       .  S
C4147      C4148   1.414       .  A
C4147      C4154   1.452       .  S
C4148      C4149   1.412       .  A
C4149      C4150   1.412       .  A
C4149      C4152   1.450       .  S
C4150      C4153   1.451       .  S
C4151      N4158   1.157       .  T
C4152      N4157   1.157       .  T
C4153      N4155   1.157       .  T
C4154      N4156   1.157       .  T
C4159      C4160   1.412       .  A
C4159      C4164   1.420       .  A
C4160      C4161   1.406       .  A
C4160      C4165   1.449       .  S
C4161      C4162   1.412       .  A
C4161      C4168   1.450       .  S
C4162      C4163   1.411       .  A
C4163      C4164   1.412       .  A
C4163      C4166   1.451       .  S
C4164      C4167   1.453       .  S
C4165      N4172   1.156       .  T
C4166      N4171   1.157       .  T
C4167      N4169   1.158       .  T
C4168      N4170   1.157       .  T
C4173      C4174   1.412       .  A
C4173      C4178   1.412       .  A
C4174      C4175   1.414       .  A
C4174      C4179   1.451       .  S
C4175      C4176   1.418       .  A
C4175      C4182   1.452       .  S
C4176      C4177   1.414       .  A
C4177      C4178   1.416       .  A
C4177      C4180   1.448       .  S
C4178      C4181   1.448       .  S
C4179      N4186   1.157       .  T
C4180      N4185   1.157       .  T
C4181      N4183   1.156       .  T
C4182      N4184   1.157       .  T
C4187      C4188   1.414       .  A
C4187      C4192   1.412       .  A
C4188      C4189   1.410       .  A
C4188      C4193   1.451       .  S
C4189      C4190   1.410       .  A
C4189      C4196   1.450       .  S
C4190      C4191   1.412       .  A
C4191      C4192   1.407       .  A
C4191      C4194   1.452       .  S
C4192      C4195   1.448       .  S
C4193      N4200   1.157       .  T
C4194      N4199   1.157       .  T
C4195      N4197   1.156       .  T
C4196      N4198   1.157       .  T
C4201      C4202   1.424       .  A
C4201      C4206   1.418       .  A
C4202      C4203   1.415       .  A
C4202      C4207   1.453       .  S
C4203      C4204   1.409       .  A
C4203      C4210   1.450       .  S
C4204      C4205   1.414       .  A
C4205      C4206   1.411       .  A
C4205      C4208   1.452       .  S
C4206      C4209   1.452       .  S
C4207      N4214   1.158       .  T
C4208      N4213   1.157       .  T
C4209      N4211   1.157       .  T
C4215      C4216   1.416       .  A
C4215      C4220   1.413       .  A
C4216      C4217   1.412       .  A
C4216      C4221   1.451       .  S
C4217      C4218   1.412       .  A
C4217      C4224   1.452       .  S
C4218      C4219   1.416       .  A
C4219      C4220   1.417       .  A
C4219      C4222   1.451       .  S
C4220      C4223   1.448       .  S
C4222      N4227   1.158       .  T
C4223      N4225   1.157       .  T
C4224      N4226   1.157       .  T
C4229      C4230   1.413       .  A
C4229      C4234   1.415       .  A
C4230      C4231   1.415       .  A
C4230      C4235   1.451       .  S
C4231      C4232   1.417       .  A
C4231      C4238   1.450       .  S
C4232      C4233   1.415       .  A
C4233      C4234   1.417       .  A
C4233      C4236   1.448       .  S
C4234      C4237   1.452       .  S
C4235      N4242   1.157       .  T
C4236      N4241   1.157       .  T
C4237      N4239   1.158       .  T
C4238      N4240   1.157       .  T
C4243      C4244   1.424       .  A
C4243      C4248   1.425       .  A
C4244      C4245   1.416       .  A
C4244      C4249   1.452       .  S
C4245      C4246   1.411       .  A
C4245      C4252   1.451       .  S
C4246      C4247   1.410       .  A
C4247      C4248   1.413       .  A
C4247      C4250   1.453       .  S
C4248      C4251   1.451       .  S
C4249      N4256   1.158       .  T
C4250      N4255   1.157       .  T
C4251      N4253   1.157       .  T
C4252      N4254   1.157       .  T
