geometry optimzed in LAMMPS
_audit_creation_date              2020-11-30 
_audit_creation_method            'lammps2cif' 
_symmetry_space_group_name_H-M    'P1' 
_symmetry_Int_Tables_number       1 
_symmetry_cell_setting            triclinic 
loop_ 
_symmetry_equiv_pos_as_xyz 
  x,y,z 
_cell_length_a                    21.61409054 
_cell_length_b                    22.37191309530327 
_cell_length_c                    57.460558551829585 
_cell_angle_alpha                 89.90140942641003 
_cell_angle_beta                  89.65657195501511 
_cell_angle_gamma                 86.76159573712702 
loop_ 
_atom_site_label 
_atom_site_type_symbol 
_atom_site_fract_x 
_atom_site_fract_y 
_atom_site_fract_z 
_atom_site_charge 
N1          N  0.35556484  0.99864226  0.25854794    -0.03100
C2          C  0.35611962  0.96596332  0.23856683    -0.00600
C3          C  0.36985997  0.90625484  0.24354859    -0.23400
C4          C  0.37213562  0.90120643  0.26735767    -0.23600
C5          C  0.35982636  0.95798014  0.27623026    -0.00700
H6          H  0.36754476  0.86919074  0.23156120     0.13100
H7          H  0.37210152  0.85959912  0.27700243     0.13200
N8          N  0.35042553  0.06250479  0.26051195    -0.03100
C9          C  0.34914501  0.09529433  0.28046414    -0.00600
C10         C  0.33453586  0.15480915  0.27540739    -0.23400
C11         C  0.33321202  0.15969901  0.25157807    -0.23600
C12         C  0.34690680  0.10299996  0.24278938    -0.00700
H13         H  0.33613338  0.19202037  0.28736426     0.13100
H14         H  0.33338738  0.20133478  0.24195830     0.13200
N15         N  0.85428123  0.52699795  0.25858420    -0.03100
C16         C  0.89052930  0.51741159  0.23924807    -0.00600
C17         C  0.95230036  0.51503701  0.24535537    -0.23400
C18         C  0.95424214  0.51794538  0.26918399    -0.23600
C19         C  0.89359882  0.52190018  0.27708125    -0.00700
H20         H  0.99139221  0.50312833  0.23410256     0.13100
H21         H  0.99515010  0.50830069  0.27961209     0.13700
N22         N  0.78982093  0.54575151  0.25905848    -0.03100
C23         C  0.75232528  0.55339473  0.27813954    -0.00600
C24         C  0.69103881  0.55921190  0.27134058    -0.23400
C25         C  0.69084956  0.56049028  0.24748992    -0.23600
C26         C  0.75200917  0.55534096  0.24033378    -0.00700
H27         H  0.65148792  0.57090826  0.28239480     0.13100
H28         H  0.65115890  0.57309075  0.23679395     0.13200
C29         C  0.03960681  0.02987744  0.06156537     0.42800
N30         N  0.98347912  0.00307729  0.03320849     0.01700
C31         C  0.78438663  0.18386535  0.46591438    -0.06200
H32         H  0.74306200  0.19896062  0.05577512     0.07200
C33         C  0.69742833  0.97443832  0.05369035    -0.06500
Co34       Co  0.92522252  0.10874066  0.00766975     0.74200
N35         N  0.81279450  0.15277580  0.03432789    -0.25700
Co36       Co  0.76569385  0.10379659  0.00963372     0.74100
C37         C  0.67081053  0.02806165  0.06530577     0.42900
N38         N  0.83432411  0.90316556  0.03459870     0.01300
N39         N  0.72419848  0.05417601  0.03572692     0.01400
N40         N  0.88882093  0.18701121  0.46515496    -0.46600
H41         H  0.01876014  0.12992045  0.05364647     0.07200
N42         N  0.87369922  0.15446238  0.03342325     0.01700
N43         N  0.72132955  0.05352024  0.48476677     0.01400
C44         C  0.66519175  0.02661280  0.45649380     0.43000
N45         N  0.89522858  0.90501669  0.03423974    -0.25200
C46         C  0.00600722  0.08273771  0.46384586    -0.06100
N47         N  0.01936941  0.98185250  0.05029736    -0.46300
N48         N  0.68501705  0.07471512  0.46781967    -0.46500
C49         C  0.03339484  0.02965587  0.45222802     0.42800
N50         N  0.86994027  0.15342840  0.48259212     0.01700
N51         N  0.89288819  0.90503709  0.48320230    -0.25200
N52         N  0.97866134  0.06220024  0.03269463    -0.25700
N53         N  0.83199436  0.90292240  0.48383667     0.01300
H54         H  0.96333626  0.86481911  0.46048662     0.07200
H55         H  0.68708805  0.92659206  0.46408220     0.07200
N56         N  0.80910896  0.15107417  0.48344133    -0.25700
N57         N  0.72961212  0.99507272  0.03565157    -0.25400
N58         N  0.98139772  0.00257078  0.48204780     0.01700
C59         C  0.84674284  0.21455777  0.06126506     0.43100
C60         C  0.91842562  0.87109267  0.05181765    -0.06600
N61         N  0.72664128  0.99445747  0.48506157    -0.25400
H62         H  0.69269398  0.92773593  0.05782177     0.07200
N63         N  0.89575721  0.19074976  0.04912537    -0.46600
H64         H  0.96706895  0.86325795  0.05573892     0.07200
C65         C  0.86017267  0.84846738  0.45445119     0.42900
C66         C  0.01311019  0.08322093  0.04986263    -0.06100
Co67       Co  0.93957758  0.95293141  0.00820174     0.73800
N68         N  0.81391909  0.86923191  0.05155317    -0.46300
C69         C  0.83733355  0.20762571  0.45374540     0.43200
N70         N  0.01628543  0.98151694  0.46449541    -0.46300
Co71       Co  0.77981675  0.94803650  0.00978603     0.73900
C72         C  0.69230620  0.97332255  0.46793917    -0.06600
C73         C  0.79135352  0.18946899  0.05143862    -0.06200
N74         N  0.97491087  0.06158141  0.48199013    -0.25700
N75         N  0.68932611  0.07573350  0.05315923    -0.46500
H76         H  0.73537965  0.19112198  0.46253216     0.07200
C77         C  0.91496423  0.87205655  0.46516956    -0.06600
Cl78       Cl  0.85258403  0.02836743  0.00886976    -0.49600
C79         C  0.86415475  0.84736139  0.06325537     0.42900
H80         H  0.00980995  0.12957997  0.45976108     0.07200
N81         N  0.81056809  0.86943772  0.46702513    -0.46300
C82         C  0.77023999  0.57870182  0.30077017    -0.02900
C83         C  0.74224032  0.55977793  0.32137740    -0.05500
C84         C  0.75396314  0.58751441  0.34254749    -0.20600
C85         C  0.79340789  0.63523993  0.34360112     0.25200
C86         C  0.82124576  0.65447019  0.32284603    -0.18100
C87         C  0.80951329  0.62656510  0.30164211    -0.08100
C88         C  0.80007191  0.66632229  0.36630841    -0.18400
C89         C  0.84552379  0.70324345  0.37117744    -0.23200
C90         C  0.84871074  0.73781738  0.39330278     0.27200
C91         C  0.90485369  0.76235763  0.39934961    -0.19900
C92         C  0.90903625  0.79768438  0.41932836    -0.09600
C93         C  0.85688360  0.80973564  0.43362950    -0.10100
C94         C  0.80073752  0.78526123  0.42764842    -0.03000
C95         C  0.79655270  0.74985681  0.40773482    -0.18200
H96         H  0.71079403  0.52377144  0.32101276     0.10900
H97         H  0.73128008  0.57220113  0.35813893     0.11000
H98         H  0.85023909  0.69227450  0.32265378     0.10700
H99         H  0.82992733  0.64322624  0.28581338     0.11800
H100        H  0.76603933  0.65742341  0.37962825     0.11900
H101        H  0.88268143  0.70809145  0.35866286     0.13800
H102        H  0.94561875  0.75447485  0.38847815     0.10300
H103        H  0.95289793  0.81622354  0.42333457     0.12400
H104        H  0.75966733  0.79399338  0.43827138     0.09000
H105        H  0.75182520  0.73366997  0.40348635     0.11700
C106        C  0.86125021  0.80839455  0.08405363    -0.02900
C107        C  0.91453401  0.79260983  0.09704397    -0.05500
C108        C  0.91042169  0.75802952  0.11728623    -0.20600
C109        C  0.85323726  0.73785632  0.12478144     0.25200
C110        C  0.79999496  0.75319924  0.11158430    -0.18100
C111        C  0.80407072  0.78793023  0.09145015    -0.08100
C112        C  0.84992227  0.70437363  0.14713692    -0.18400
C113        C  0.80512492  0.66651983  0.15190458    -0.23200
C114        C  0.79679003  0.63610016  0.17471577     0.27200
C115        C  0.75483031  0.59045321  0.17595086    -0.19900
C116        C  0.74137434  0.56345771  0.19718398    -0.09600
C117        C  0.77027128  0.58088786  0.21766677    -0.10100
C118        C  0.81223184  0.62652445  0.21661383    -0.03000
C119        C  0.82557679  0.65382608  0.19535403    -0.18200
H120        H  0.95921101  0.80779509  0.09184633     0.10900
H121        H  0.95203436  0.74728811  0.12721895     0.11000
H122        H  0.75472759  0.74024583  0.11710061     0.10700
H123        H  0.76209640  0.79957625  0.08185964     0.11800
H124        H  0.88618968  0.71070965  0.15969288     0.11900
H125        H  0.77251660  0.65679277  0.13832091     0.13800
H126        H  0.73154406  0.57619301  0.16044918     0.10300
H127        H  0.70822810  0.52892282  0.19766355     0.12400
H128        H  0.83367516  0.64187084  0.23234240     0.09000
H129        H  0.85680539  0.68985260  0.19544502     0.11700
C130        C  0.83640816  0.24624838  0.43267795    -0.02900
C131        C  0.78181474  0.25546622  0.41970585    -0.05500
C132        C  0.78055848  0.29156810  0.39979633    -0.20600
C133        C  0.83348202  0.32013530  0.39245380     0.25200
C134        C  0.88848317  0.31063348  0.40534604    -0.18100
C135        C  0.88986583  0.27397226  0.42522232    -0.08100
C136        C  0.82981280  0.35664175  0.37066023    -0.18400
C137        C  0.86839186  0.40020759  0.36544252    -0.23200
C138        C  0.86713910  0.43483602  0.34310940     0.27200
C139        C  0.90291563  0.48524611  0.34139286    -0.19900
C140        C  0.90916741  0.51520875  0.32017767    -0.09600
C141        C  0.87893902  0.49612975  0.30018969    -0.10100
C142        C  0.84149711  0.44701875  0.30192409    -0.03000
C143        C  0.83553294  0.41668166  0.32312042    -0.18200
H144        H  0.73998797  0.23427280  0.42473822     0.10900
H145        H  0.73781731  0.29732645  0.39008938     0.11000
H146        H  0.93085189  0.33024255  0.39991434     0.10700
H147        H  0.93277235  0.26731817  0.43476095     0.11800
H148        H  0.79225724  0.34807713  0.35894069     0.11900
H149        H  0.90269353  0.41161360  0.37816357     0.13800
H150        H  0.92777110  0.50045433  0.35637851     0.10300
H151        H  0.93875964  0.55264114  0.31921347     0.12400
H152        H  0.81886951  0.43060714  0.28662669     0.09000
H153        H  0.80837978  0.37763622  0.32330022     0.11700
C154        C  0.85149730  0.25879977  0.08031000    -0.02900
C155        C  0.91003621  0.27589696  0.08740379    -0.05500
C156        C  0.91560183  0.31638852  0.10568360    -0.20600
C157        C  0.86292933  0.34059462  0.11747818     0.25200
C158        C  0.80408635  0.32463584  0.11003160    -0.18100
C159        C  0.79851108  0.28405877  0.09165742    -0.08100
C160        C  0.87182769  0.38221448  0.13729941    -0.18400
C161        C  0.83049532  0.39188400  0.15477980    -0.23200
C162        C  0.84368537  0.42767525  0.17587310     0.27200
C163        C  0.88424097  0.47477126  0.17540909    -0.19900
C164        C  0.89830558  0.50473746  0.19593048    -0.09600
C165        C  0.87117515  0.48924337  0.21723362    -0.10100
C166        C  0.82962849  0.44321154  0.21761768    -0.03000
C167        C  0.81560102  0.41319825  0.19711095    -0.18200
H168        H  0.95179786  0.25754942  0.07894889     0.10900
H169        H  0.96146692  0.32811732  0.11087934     0.11000
H170        H  0.76225073  0.34363612  0.11816611     0.10700
H171        H  0.75272495  0.27243201  0.08642119     0.11800
H172        H  0.91661935  0.40160546  0.13848084     0.11900
H173        H  0.78801103  0.36828944  0.15483455     0.13800
H174        H  0.90526719  0.48853447  0.15927483     0.10300
H175        H  0.93040729  0.54016328  0.19521390     0.12400
H176        H  0.80896048  0.42969877  0.23387776     0.09000
H177        H  0.78407115  0.37730785  0.19796332     0.11700
C178        C  0.38701748  0.07973007  0.30116159    -0.02900
C179        C  0.44710386  0.05343584  0.29827889    -0.05500
C180        C  0.48532813  0.04287983  0.31748869    -0.20600
C181        C  0.46408111  0.05797251  0.33991021     0.25200
C182        C  0.40371786  0.08385082  0.34289054    -0.18100
C183        C  0.36575808  0.09540950  0.32357679    -0.08100
C184        C  0.50782043  0.05166501  0.35952084    -0.18400
C185        C  0.49045603  0.03713257  0.38115676    -0.23200
C186        C  0.53546194  0.03453265  0.40039392     0.27200
C187        C  0.53803561  0.98556832  0.41564489    -0.19900
C188        C  0.58110953  0.98241709  0.43371561    -0.09600
C189        C  0.62063677  0.02926458  0.43722903    -0.10100
C190        C  0.61705480  0.07892159  0.42228112    -0.03000
C191        C  0.57527593  0.08123159  0.40381474    -0.18200
H192        H  0.46494113  0.04232948  0.28108469     0.10900
H193        H  0.53193326  0.02357403  0.31481709     0.11000
H194        H  0.38676345  0.09717968  0.35997946     0.10700
H195        H  0.31990318  0.11660500  0.32607144     0.11800
H196        H  0.55648856  0.05793192  0.35591583     0.11900
H197        H  0.44341221  0.02462504  0.38460389     0.13800
H198        H  0.50742548  0.94936368  0.41331549     0.10300
H199        H  0.58272329  0.94390353  0.44517634     0.12400
H200        H  0.64712076  0.11553433  0.42470873     0.09000
H201        H  0.57334899  0.11985980  0.39239916     0.11700
C202        C  0.38059946  0.09568549  0.22038540    -0.02900
C203        C  0.35597500  0.12158500  0.19996151    -0.05500
C204        C  0.38956718  0.11727866  0.17908448    -0.20600
C205        C  0.44848468  0.08740799  0.17827805     0.25200
C206        C  0.47369710  0.06276426  0.19893653    -0.18100
C207        C  0.44008798  0.06701833  0.21976582    -0.08100
C208        C  0.48340268  0.08509026  0.15590033    -0.18400
C209        C  0.52754040  0.04210049  0.15080177    -0.23200
C210        C  0.56233163  0.03965437  0.12842071     0.27200
C211        C  0.58604171  0.98395884  0.12014018    -0.19900
C212        C  0.62044780  0.97993249  0.09946233    -0.09600
C213        C  0.63273968  0.03178088  0.08680953    -0.10100
C214        C  0.60929795  0.08761739  0.09513563    -0.03000
C215        C  0.57444935  0.09159653  0.11572739    -0.18200
H216        H  0.31065424  0.14483615  0.20018608     0.10900
H217        H  0.36941765  0.13724169  0.16348792     0.11000
H218        H  0.51988345  0.04149986  0.19925252     0.10700
H219        H  0.46092437  0.04862318  0.23550429     0.11800
H220        H  0.47014709  0.11838196  0.14280587     0.11900
H221        H  0.53654806  0.00537738  0.16291290     0.13800
H222        H  0.57773976  0.94334775  0.12969169     0.10300
H223        H  0.63795760  0.93622368  0.09360189     0.12400
H224        H  0.61837151  0.12837595  0.08582999     0.09000
H225        H  0.55840647  0.13545920  0.12192154     0.11700
C226        C  0.07474772  0.02766114  0.43159291    -0.02900
C227        C  0.08844648  0.08065728  0.41992517    -0.05500
C228        C  0.12702384  0.07875537  0.40031264    -0.20600
C229        C  0.15328113  0.02402668  0.39206998     0.25200
C230        C  0.13966673  0.97093368  0.40373960    -0.18100
C231        C  0.10075175  0.97280173  0.42329843    -0.08100
C232        C  0.19063675  0.02343806  0.37031373    -0.18400
C233        C  0.23428488  0.98015221  0.36509929    -0.23200
C234        C  0.26693995  0.97703257  0.34231894     0.27200
C235        C  0.32675715  0.94928102  0.34090202    -0.19900
C236        C  0.35738376  0.94336153  0.31943246    -0.09600
C237        C  0.32878811  0.96568838  0.29909688    -0.10100
C238        C  0.26843217  0.99207973  0.30038707    -0.03000
C239        C  0.23778243  0.99782965  0.32178135    -0.18200
H240        H  0.06900766  0.12372436  0.42573971     0.10900
H241        H  0.13622896  0.12019448  0.39148199     0.11000
H242        H  0.15748696  0.92773541  0.39743991     0.10700
H243        H  0.09061345  0.93123230  0.43182123     0.11800
H244        H  0.18229113  0.06056478  0.35831328     0.11900
H245        H  0.24738420  0.94633145  0.37800876     0.13800
H246        H  0.34983806  0.93229822  0.35644484     0.10300
H247        H  0.40360604  0.92207388  0.31868636     0.12400
H248        H  0.24479770  0.00767967  0.28476086     0.09000
H249        H  0.19075657  0.01716327  0.32208390     0.11700
C250        C  0.08442769  0.02698593  0.08085048    -0.02900
C251        C  0.12713323  0.07153197  0.08340072    -0.05500
C252        C  0.17020221  0.06823582  0.10151791    -0.20600
C253        C  0.16980315  0.02155945  0.11782539     0.25200
C254        C  0.12697784  0.97698876  0.11527251    -0.18100
C255        C  0.08511982  0.97936318  0.09677766    -0.08100
C256        C  0.21497895  0.01930871  0.13715609    -0.18400
C257        C  0.19849236  0.00393139  0.15884559    -0.23200
C258        C  0.24220686  0.00017259  0.17860932     0.27200
C259        C  0.21976666  0.01428948  0.20099114    -0.19900
C260        C  0.25801701  0.00598120  0.22035407    -0.09600
C261        C  0.31915521  0.98229270  0.21770587    -0.10100
C262        C  0.34183994  0.96804990  0.19533657    -0.03000
C263        C  0.30397708  0.97782678  0.17585396    -0.18200
H264        H  0.12789177  0.10833725  0.07116055     0.10900
H265        H  0.20316419  0.10272558  0.10305641     0.11000
H266        H  0.12652561  0.93984796  0.12737150     0.10700
H267        H  0.05268833  0.94444015  0.09509365     0.11800
H268        H  0.26141558  0.03360425  0.13378216     0.11900
H269        H  0.15026044  0.99586089  0.16250305     0.13800
H270        H  0.17214661  0.03090754  0.20352315     0.10300
H271        H  0.23918406  0.01591567  0.23750932     0.12400
H272        H  0.38858257  0.94879515  0.19303111     0.09000
H273        H  0.32208697  0.96538493  0.15883072     0.11700
N274        N  0.35550231  0.99860266  0.75855329    -0.03100
C275        C  0.35602092  0.96590680  0.73857614    -0.00600
C276        C  0.36972385  0.90619553  0.74356486    -0.23400
C277        C  0.37201258  0.90116575  0.76737406    -0.23600
C278        C  0.35975103  0.95795320  0.77623980    -0.00700
H279        H  0.36737857  0.86912381  0.73158269     0.13100
H280        H  0.37195962  0.85956841  0.77702475     0.13200
N281        N  0.35041175  0.06246743  0.76051244    -0.03100
C282        C  0.34918482  0.09527035  0.78046112    -0.00600
C283        C  0.33459345  0.15478679  0.77540187    -0.23400
C284        C  0.33322627  0.15966133  0.75157269    -0.23600
C285        C  0.34687903  0.10295187  0.74278709    -0.00700
H286        H  0.33622707  0.19200391  0.78735428     0.13100
H287        H  0.33340327  0.20128971  0.74194811     0.13200
N288        N  0.85436709  0.52699301  0.75857231    -0.03100
C289        C  0.89060947  0.51741482  0.73923409    -0.00600
C290        C  0.95238231  0.51505893  0.74533838    -0.23400
C291        C  0.95433127  0.51796606  0.76916722    -0.23600
C292        C  0.89369052  0.52190317  0.77706735    -0.00700
H293        H  0.99147268  0.50315792  0.73408388     0.13100
H294        H  0.99524416  0.50832799  0.77959328     0.13700
N295        N  0.78990290  0.54572962  0.75905097    -0.03100
C296        C  0.75241411  0.55336219  0.77813493    -0.00600
C297        C  0.69112495  0.55918009  0.77133806    -0.23400
C298        C  0.69092863  0.56047679  0.74748712    -0.23600
C299        C  0.75208566  0.55532758  0.74032836    -0.00700
H300        H  0.65157691  0.57087067  0.78239452     0.13100
H301        H  0.65123521  0.57308195  0.73679321     0.13200
C302        C  0.03963058  0.02981900  0.56153681     0.42800
N303        N  0.98348253  0.00302084  0.53318584     0.01700
C304        C  0.78444470  0.18388583  0.96590448    -0.06200
H305        H  0.74305473  0.19887164  0.55577765     0.07200
C306        C  0.69746061  0.97437503  0.55370236    -0.06500
Co307      Co  0.92520101  0.10868501  0.50765353     0.74200
N308        N  0.81278489  0.15270676  0.53432459    -0.25700
Co309      Co  0.76567006  0.10373724  0.50963382     0.74100
C310        C  0.67084483  0.02799433  0.56532026     0.42900
N311        N  0.83432242  0.90311971  0.53459403     0.01300
N312        N  0.72419226  0.05411608  0.53573166     0.01400
N313        N  0.88887917  0.18703757  0.96515854    -0.46600
H314        H  0.01877732  0.12986259  0.55362096     0.07200
N315        N  0.87368893  0.15440228  0.53341494     0.01700
N316        N  0.72136143  0.05357868  0.98476597     0.01400
C317        C  0.66519168  0.02667410  0.95650354     0.43000
N318        N  0.89522685  0.90496915  0.53422936    -0.25200
C319        C  0.00608835  0.08280781  0.96388238    -0.06100
N320        N  0.01938273  0.98179474  0.55027164    -0.46300
N321        N  0.68503104  0.07477613  0.96782477    -0.46500
C322        C  0.03349459  0.02973215  0.95226745     0.42800
N323        N  0.86998284  0.15347823  0.98260020     0.01700
N324        N  0.89293254  0.90509005  0.98320951    -0.25200
N325        N  0.97866547  0.06214370  0.53267190    -0.25700
N326        N  0.83203821  0.90297018  0.98383791     0.01300
H327        H  0.96340050  0.86487850  0.96049881     0.07200
H328        H  0.68708180  0.92665239  0.96409005     0.07200
N329        N  0.80915115  0.15112261  0.98344222    -0.25700
N330        N  0.72961489  0.99501404  0.53565699    -0.25400
N331        N  0.98144092  0.00263171  0.98207014     0.01700
C332        C  0.84673390  0.21447815  0.56126401     0.43100
C333        C  0.91843476  0.87104814  0.55180588    -0.06600
N334        N  0.72667219  0.99451523  0.98505987    -0.25400
H335        H  0.69273500  0.92767156  0.55783427     0.07200
N336        N  0.89574757  0.19068747  0.54911815    -0.46600
H337        H  0.96708081  0.86320942  0.55572194     0.07200
C338        C  0.86024473  0.84851608  0.95445248     0.42900
C339        C  0.01312836  0.08316335  0.54983618    -0.06100
Co340      Co  0.93955699  0.95287678  0.50818616     0.73800
N341        N  0.81392692  0.86919103  0.55155133    -0.46300
C342        C  0.83740248  0.20763274  0.95373797     0.43200
N343        N  0.01635966  0.98158595  0.96452487    -0.46300
Co344      Co  0.77979746  0.94798468  0.50978663     0.73900
C345        C  0.69231454  0.97338226  0.96794412    -0.06600
C346        C  0.79134613  0.18938453  0.55143986    -0.06200
N347        N  0.97495636  0.06164205  0.98201521    -0.25700
N348        N  0.68933604  0.07566960  0.55316931    -0.46500
H349        H  0.73544186  0.19112927  0.96251185     0.07200
C350        C  0.91502493  0.87211244  0.96517740    -0.06600
Cl351      Cl  0.85256412  0.02831321  0.50886206    -0.49600
C352        C  0.86416948  0.84732332  0.56324930     0.42900
H353        H  0.00990416  0.12965246  0.95980478     0.07200
N354        N  0.81062979  0.86948191  0.96702326    -0.46300
C355        C  0.77033370  0.57868685  0.80076322    -0.02900
C356        C  0.74235346  0.55976950  0.82137560    -0.05500
C357        C  0.75406901  0.58753647  0.84254111    -0.20600
C358        C  0.79348832  0.63528568  0.84358569     0.25200
C359        C  0.82130735  0.65450648  0.82282578    -0.18100
C360        C  0.80958165  0.62657185  0.80162656    -0.08100
C361        C  0.80014540  0.66639796  0.86628884    -0.18400
C362        C  0.84559419  0.70332963  0.87115669    -0.23200
C363        C  0.84878826  0.73791348  0.89328296     0.27200
C364        C  0.90490387  0.76254245  0.89931028    -0.19900
C365        C  0.90909021  0.79785365  0.91929518    -0.09600
C366        C  0.85696734  0.80980214  0.93362264    -0.10100
C367        C  0.80085078  0.78524567  0.92765938    -0.03000
C368        C  0.79666194  0.74985943  0.90774061    -0.18200
H369        H  0.71092459  0.52374780  0.82101840     0.10900
H370        H  0.73139954  0.57222805  0.85813622     0.11000
H371        H  0.85027968  0.69232644  0.82262670     0.10700
H372        H  0.82997782  0.64322999  0.78579398     0.11800
H373        H  0.76611074  0.65750139  0.87960756     0.11900
H374        H  0.88274612  0.70817706  0.85863949     0.13800
H375        H  0.94564491  0.75473824  0.88841988     0.10300
H376        H  0.95292749  0.81646226  0.92328606     0.12400
H377        H  0.75980340  0.79389587  0.93830227     0.09000
H378        H  0.75195063  0.73360806  0.90351187     0.11700
C379        C  0.86127628  0.80835526  0.58404611    -0.02900
C380        C  0.91456375  0.79259057  0.59703657    -0.05500
C381        C  0.91046477  0.75799923  0.61727574    -0.20600
C382        C  0.85329137  0.73779294  0.62476671     0.25200
C383        C  0.80004348  0.75312073  0.61157072    -0.18100
C384        C  0.80410504  0.78786668  0.59144018    -0.08100
C385        C  0.84999386  0.70429705  0.64711863    -0.18400
C386        C  0.80521791  0.66641973  0.65188450    -0.23200
C387        C  0.79688925  0.63601074  0.67469800     0.27200
C388        C  0.75493437  0.59036051  0.67593847    -0.19900
C389        C  0.74146509  0.56339423  0.69717622    -0.09600
C390        C  0.77034734  0.58085500  0.71765782    -0.10100
C391        C  0.81230999  0.62648849  0.71659869    -0.03000
C392        C  0.82566765  0.65376075  0.69533467    -0.18200
H393        H  0.95923301  0.80779908  0.59184127     0.10900
H394        H  0.95207970  0.74727316  0.62720910     0.11000
H395        H  0.75478324  0.74014240  0.61708518     0.10700
H396        H  0.76212783  0.79950071  0.58184966     0.11800
H397        H  0.88625649  0.71064919  0.65967480     0.11900
H398        H  0.77261570  0.65667810  0.63830043     0.13800
H399        H  0.73165820  0.57607888  0.66043772     0.10300
H400        H  0.70832237  0.52885661  0.69766025     0.12400
H401        H  0.83374697  0.64185392  0.73232552     0.09000
H402        H  0.85689631  0.68978698  0.69542194     0.11700
C403        C  0.83649616  0.24622932  0.93266362    -0.02900
C404        C  0.78193918  0.25536048  0.91966419    -0.05500
C405        C  0.78070143  0.29143972  0.89974854    -0.20600
C406        C  0.83360451  0.32007372  0.89242822     0.25200
C407        C  0.88856825  0.31066353  0.90534919    -0.18100
C408        C  0.88993536  0.27401914  0.92523015    -0.08100
C409        C  0.82996091  0.35654804  0.87062661    -0.18400
C410        C  0.86846845  0.40018734  0.86542662    -0.23200
C411        C  0.86723977  0.43480079  0.84308932     0.27200
C412        C  0.90298880  0.48523181  0.84137849    -0.19900
C413        C  0.90924449  0.51520094  0.82016468    -0.09600
C414        C  0.87904226  0.49611105  0.80017282    -0.10100
C415        C  0.84163466  0.44697397  0.80190013    -0.03000
C416        C  0.83567042  0.41662782  0.82309429    -0.18200
H417        H  0.74012968  0.23411346  0.92467963     0.10900
H418        H  0.73799060  0.29712838  0.89001935     0.11000
H419        H  0.93092202  0.33033005  0.89993584     0.10700
H420        H  0.93281371  0.26743339  0.93479094     0.11800
H421        H  0.79247971  0.34789205  0.85888612     0.11900
H422        H  0.90269037  0.41166745  0.87816706     0.13800
H423        H  0.92781702  0.50045524  0.85636819     0.10300
H424        H  0.93881354  0.55265166  0.81920539     0.12400
H425        H  0.81903144  0.43055225  0.78659911     0.09000
H426        H  0.80853753  0.37756942  0.82326773     0.11700
C427        C  0.85147852  0.25872956  0.58030654    -0.02900
C428        C  0.91000068  0.27599510  0.58734691    -0.05500
C429        C  0.91555879  0.31650656  0.60562069    -0.20600
C430        C  0.86289761  0.34056151  0.61746453     0.25200
C431        C  0.80406524  0.32442451  0.61007393    -0.18100
C432        C  0.79849729  0.28383086  0.59170482    -0.08100
C433        C  0.87180185  0.38220774  0.63727817    -0.18400
C434        C  0.83053319  0.39181483  0.65478401    -0.23200
C435        C  0.84374322  0.42762690  0.67587102     0.27200
C436        C  0.88428937  0.47473186  0.67539824    -0.19900
C437        C  0.89836718  0.50471058  0.69591585    -0.09600
C438        C  0.87125519  0.48922469  0.71722360    -0.10100
C439        C  0.82971852  0.44318559  0.71761631    -0.03000
C440        C  0.81568251  0.41315661  0.69711436    -0.18200
H441        H  0.95175669  0.25777143  0.57885240     0.10900
H442        H  0.96141430  0.32837116  0.61077244     0.11000
H443        H  0.76222833  0.34329671  0.61824714     0.10700
H444        H  0.75272054  0.27206438  0.58651379     0.11800
H445        H  0.91655813  0.40167823  0.63842910     0.11900
H446        H  0.78809085  0.36815494  0.65486442     0.13800
H447        H  0.90529702  0.48849655  0.65926083     0.10300
H448        H  0.93046019  0.54014306  0.69519239     0.12400
H449        H  0.80906339  0.42967968  0.73387975     0.09000
H450        H  0.78416009  0.37726116  0.69797465     0.11700
C451        C  0.38706811  0.07969900  0.80115542    -0.02900
C452        C  0.44712700  0.05333961  0.79827092    -0.05500
C453        C  0.48536330  0.04278531  0.81747796    -0.20600
C454        C  0.46415522  0.05794722  0.83989789     0.25200
C455        C  0.40381926  0.08388953  0.84287970    -0.18100
C456        C  0.36584824  0.09544171  0.82356921    -0.08100
C457        C  0.50790513  0.05163424  0.85950493    -0.18400
C458        C  0.49053021  0.03716883  0.88114676    -0.23200
C459        C  0.53553155  0.03457073  0.90038480     0.27200
C460        C  0.53800887  0.98566672  0.91566491    -0.19900
C461        C  0.58105703  0.98252440  0.93374373    -0.09600
C462        C  0.62065418  0.02932458  0.93723503    -0.10100
C463        C  0.61717045  0.07892474  0.92225821    -0.03000
C464        C  0.57541788  0.08122159  0.90378360    -0.18200
H465        H  0.46493473  0.04218109  0.78107735     0.10900
H466        H  0.53194702  0.02342681  0.81480530     0.11000
H467        H  0.38689575  0.09727233  0.85996674     0.10700
H468        H  0.32001588  0.11668593  0.82606514     0.11800
H469        H  0.55658119  0.05784257  0.85589349     0.11900
H470        H  0.44347022  0.02471893  0.88460028     0.13800
H471        H  0.50733998  0.94950213  0.91335319     0.10300
H472        H  0.58259788  0.94405744  0.94522791     0.12400
H473        H  0.64729433  0.11549897  0.92466935     0.09000
H474        H  0.57356425  0.11980610  0.89234581     0.11700
C475        C  0.38054269  0.09561002  0.72037938    -0.02900
C476        C  0.35589576  0.12148872  0.69995583    -0.05500
C477        C  0.38946467  0.11715931  0.67907443    -0.20600
C478        C  0.44838185  0.08728901  0.67826366     0.25200
C479        C  0.47361451  0.06266124  0.69892169    -0.18100
C480        C  0.44002665  0.06693488  0.71975511    -0.08100
C481        C  0.48328162  0.08496468  0.65588210    -0.18400
C482        C  0.52743508  0.04198957  0.65078448    -0.23200
C483        C  0.56223706  0.03955219  0.62840536     0.27200
C484        C  0.58603340  0.98386949  0.62014204    -0.19900
C485        C  0.62048313  0.97985427  0.59947424    -0.09600
C486        C  0.63272942  0.03170200  0.58681327    -0.10100
C487        C  0.60919125  0.08752507  0.59511939    -0.03000
C488        C  0.57429982  0.09149280  0.61570136    -0.18200
H489        H  0.31057658  0.14474275  0.70018438     0.10900
H490        H  0.36929945  0.13710892  0.66347815     0.11000
H491        H  0.51980125  0.04139771  0.69923447     0.10700
H492        H  0.46087761  0.04855294  0.73549323     0.11800
H493        H  0.47000577  0.11824537  0.64278622     0.11900
H494        H  0.53646439  0.00527777  0.66289892     0.13800
H495        H  0.57777425  0.94326001  0.62970130     0.10300
H496        H  0.63806708  0.93615562  0.59362923     0.12400
H497        H  0.61822355  0.12828273  0.58580605     0.09000
H498        H  0.55818857  0.13534916  0.62188091     0.11700
C499        C  0.07486421  0.02774957  0.93163800    -0.02900
C500        C  0.08860167  0.08075623  0.91998522    -0.05500
C501        C  0.12716607  0.07886279  0.90036952    -0.20600
C502        C  0.15337480  0.02413247  0.89211045     0.25200
C503        C  0.13973733  0.97103081  0.90376921    -0.18100
C504        C  0.10083304  0.97289033  0.92333056    -0.08100
C505        C  0.19070079  0.02355118  0.87034814    -0.18400
C506        C  0.23434324  0.98026625  0.86512839    -0.23200
C507        C  0.26697158  0.97713371  0.84234331     0.27200
C508        C  0.32676459  0.94933232  0.84091755    -0.19900
C509        C  0.35735702  0.94337223  0.81944304    -0.09600
C510        C  0.32875110  0.96570680  0.79911100    -0.10100
C511        C  0.26842239  0.99215970  0.80041040    -0.03000
C512        C  0.23780721  0.99795274  0.82181005    -0.18200
H513        H  0.06919716  0.12382488  0.92581197     0.10900
H514        H  0.13639514  0.12030871  0.89154820     0.11000
H515        H  0.15752542  0.92783372  0.89745716     0.10700
H516        H  0.09066759  0.93131447  0.93184289     0.11800
H517        H  0.18233849  0.06067903  0.85834961     0.11900
H518        H  0.24745320  0.94644784  0.87803758     0.13800
H519        H  0.34985038  0.93233489  0.85645714     0.10300
H520        H  0.40356015  0.92204314  0.81868997     0.12400
H521        H  0.24478150  0.00777266  0.78478729     0.09000
H522        H  0.19079874  0.01732992  0.82211932     0.11700
C523        C  0.08442608  0.02692604  0.58083022    -0.02900
C524        C  0.12715608  0.07144960  0.58338005    -0.05500
C525        C  0.17020179  0.06815059  0.60150526    -0.20600
C526        C  0.16975432  0.02149550  0.61782120     0.25200
C527        C  0.12690093  0.97694963  0.61526922    -0.18100
C528        C  0.08506735  0.97932505  0.59676641    -0.08100
C529        C  0.21491814  0.01923483  0.63715666    -0.18400
C530        C  0.19842047  0.00386052  0.65884545    -0.23200
C531        C  0.24213194  0.00010262  0.67861016     0.27200
C532        C  0.21971469  0.01431420  0.70098673    -0.19900
C533        C  0.25796038  0.00601176  0.72035181    -0.09600
C534        C  0.31907097  0.98223938  0.71771108    -0.10100
C535        C  0.34173144  0.96790436  0.69534642    -0.03000
C536        C  0.30387366  0.97766891  0.67586166    -0.18200
H537        H  0.12795237  0.10823761  0.57113311     0.10900
H538        H  0.20318592  0.10262074  0.60304247     0.11000
H539        H  0.12641023  0.93982410  0.62737421     0.10700
H540        H  0.05261530  0.94441993  0.59508291     0.11800
H541        H  0.26136166  0.03351834  0.63378675     0.11900
H542        H  0.15018563  0.99580180  0.66250211     0.13800
H543        H  0.17211509  0.03100195  0.70351322     0.10300
H544        H  0.23914255  0.01601731  0.73750361     0.12400
H545        H  0.38844944  0.94858200  0.69304671     0.09000
H546        H  0.32196094  0.96515304  0.65884269     0.11700
loop_ 
_geom_bond_atom_site_label_1 
_geom_bond_atom_site_label_2 
_geom_bond_distance 
_geom_bond_site_symmetry_2 
_ccdc_geom_bond_type 
N1            C5   1.363       .  A
N1            C2   1.362       .  A
N1            N8   1.431   1_565  S
C2            C3   1.382       .  A
C2          C261   1.478       .  S
C3            C4   1.373       .  A
C3            H6   1.082       .  S
C4            C5   1.381       .  A
C4            H7   1.083       .  S
C5          C237   1.478       .  S
N8           C12   1.361       .  A
N8            C9   1.361       .  A
C9           C10   1.382       .  A
C9          C178   1.478       .  S
C10          C11   1.374       .  A
C10          H13   1.082       .  S
C11          C12   1.382       .  A
C11          H14   1.082       .  S
C12         C202   1.480       .  S
N15          C19   1.365       .  A
N15          C16   1.366       .  A
N15          N22   1.432       .  S
C16          C17   1.381       .  A
C16         C165   1.487       .  S
C17          C18   1.372       .  A
C17          H20   1.082       .  S
C18          C19   1.383       .  A
C18          H21   1.082       .  S
C19         C141   1.486       .  S
N22          C26   1.364       .  A
N22          C23   1.365       .  A
C23          C24   1.382       .  A
C23          C82   1.481       .  S
C24          C25   1.371       .  A
C24          H27   1.082       .  S
C25          C26   1.381       .  A
C25          H28   1.082       .  S
C26         C117   1.482       .  S
C29          N47   1.350   1_545  A
C29          C66   1.459       .  S
C29         C250   1.475       .  S
N30          N47   1.326   1_645  A
N30          N52   1.321       .  A
N30         Co67   2.089   1_545  S
C31          N56   1.341       .  A
C31          C69   1.463       .  S
C31          H76   1.081       .  S
H32          C73   1.081       .  S
C33          N57   1.341       .  A
C33          C37   1.461   1_565  S
C33          H62   1.081       .  S
Co34         N52   2.089       .  S
Co34         N42   2.082       .  S
Co34        N347   2.073   1_554  S
Co34        N323   2.094   1_554  S
Co34        Cl78   2.454       .  S
N35          C73   1.345       .  A
N35          N42   1.320       .  A
N35         Co36   2.097       .  S
Co36         N39   2.092       .  S
Co36        N329   2.088   1_554  S
Co36        N316   2.089   1_554  S
Co36        Cl78   2.453       .  S
C37          N75   1.352       .  A
C37         C213   1.480       .  S
N38          N45   1.319       .  A
N38          N68   1.323       .  A
N38         Co71   2.076       .  S
N39          N57   1.321   1_545  A
N39          N75   1.325       .  A
N40          C69   1.353       .  A
N40          N50   1.327       .  A
H41          C66   1.081       .  S
N42          N63   1.324       .  A
N43          N61   1.320   1_545  A
N43          N48   1.325       .  A
N43        Co309   2.089       .  S
C44          N48   1.350       .  A
C44          C72   1.456   1_545  S
C44         C189   1.471       .  S
N45          C60   1.345       .  A
N45         Co67   2.098       .  S
C46          N74   1.337   1_455  A
C46          C49   1.458       .  S
C46          H80   1.081       .  S
C49          N70   1.354   1_545  A
C49         C226   1.480       .  S
N50          N56   1.319       .  A
N50        Co307   2.094       .  S
N51          C77   1.343       .  A
N51          N53   1.320       .  A
N51        Co340   2.090       .  S
N52          C66   1.341   1_655  A
N53          N81   1.325       .  A
N53        Co344   2.090       .  S
H54          C77   1.081       .  S
H55          C72   1.081       .  S
N56        Co309   2.088       .  S
N57         Co71   2.086       .  S
N58          N70   1.327   1_645  A
N58          N74   1.320       .  A
N58        Co340   2.098   1_545  S
C59          N63   1.350       .  A
C59          C73   1.467       .  S
C59         C154   1.485       .  S
C60          C79   1.466       .  S
C60          H64   1.081       .  S
N61          C72   1.339       .  A
N61        Co344   2.073       .  S
C65          N81   1.352       .  A
C65          C77   1.463       .  S
C65          C93   1.483       .  S
Co67        N324   2.090   1_554  S
Co67        N331   2.098   1_564  S
Co67        Cl78   2.455   1_565  S
N68          C79   1.348       .  A
C69         C130   1.486       .  S
Co71        N326   2.090   1_554  S
Co71        N334   2.073   1_554  S
Co71        Cl78   2.454   1_565  S
N74        Co307   2.073       .  S
C79         C106   1.481       .  S
C82          C83   1.402       .  A
C82          C87   1.405       .  A
C83          C84   1.398       .  A
C83          H96   1.083       .  S
C84          C85   1.405       .  A
C84          H97   1.083       .  S
C85          C86   1.410       .  A
C85          C88   1.491       .  S
C86          C87   1.401       .  A
C86          H98   1.081       .  S
C87          H99   1.083       .  S
C88          C89   1.350       .  D
C88         H100   1.084       .  S
C89          C90   1.493       .  S
C89         H101   1.085       .  S
C90          C91   1.406       .  A
C90          C95   1.409       .  A
C91          C92   1.401       .  A
C91         H102   1.083       .  S
C92          C93   1.405       .  A
C92         H103   1.082       .  S
C93          C94   1.404       .  A
C94          C95   1.399       .  A
C94         H104   1.083       .  S
C95         H105   1.081       .  S
C106        C107   1.404       .  A
C106        C111   1.405       .  A
C107        C108   1.401       .  A
C107        H120   1.082       .  S
C108        C109   1.405       .  A
C108        H121   1.083       .  S
C109        C110   1.408       .  A
C109        C112   1.489       .  S
C110        C111   1.398       .  A
C110        H122   1.082       .  S
C111        H123   1.083       .  S
C112        C113   1.348       .  D
C112        H124   1.084       .  S
C113        C114   1.491       .  S
C113        H125   1.085       .  S
C114        C115   1.405       .  A
C114        C119   1.410       .  A
C115        C116   1.397       .  A
C115        H126   1.083       .  S
C116        C117   1.402       .  A
C116        H127   1.083       .  S
C117        C118   1.404       .  A
C118        C119   1.401       .  A
C118        H128   1.083       .  S
C119        H129   1.080       .  S
C130        C131   1.405       .  A
C130        C135   1.406       .  A
C131        C132   1.399       .  A
C131        H144   1.082       .  S
C132        C133   1.404       .  A
C132        H145   1.083       .  S
C133        C134   1.410       .  A
C133        C136   1.494       .  S
C134        C135   1.404       .  A
C134        H146   1.082       .  S
C135        H147   1.083       .  S
C136        C137   1.350       .  D
C136        H148   1.083       .  S
C137        C138   1.497       .  S
C137        H149   1.085       .  S
C138        C139   1.406       .  A
C138        C143   1.412       .  A
C139        C140   1.400       .  A
C139        H150   1.083       .  S
C140        C141   1.404       .  A
C140        H151   1.083       .  S
C141        C142   1.404       .  A
C142        C143   1.402       .  A
C142        H152   1.083       .  S
C143        H153   1.080       .  S
C154        C155   1.405       .  A
C154        C159   1.405       .  A
C155        C156   1.398       .  A
C155        H168   1.083       .  S
C156        C157   1.404       .  A
C156        H169   1.083       .  S
C157        C158   1.409       .  A
C157        C160   1.493       .  S
C158        C159   1.404       .  A
C158        H170   1.081       .  S
C159        H171   1.082       .  S
C160        C161   1.350       .  D
C160        H172   1.086       .  S
C161        C162   1.492       .  S
C161        H173   1.085       .  S
C162        C163   1.408       .  A
C162        C167   1.405       .  A
C163        C164   1.401       .  A
C163        H174   1.082       .  S
C164        C165   1.405       .  A
C164        H175   1.083       .  S
C165        C166   1.404       .  A
C166        C167   1.400       .  A
C166        H176   1.083       .  S
C167        H177   1.083       .  S
C178        C179   1.404       .  A
C178        C183   1.403       .  A
C179        C180   1.395       .  A
C179        H192   1.083       .  S
C180        C181   1.401       .  A
C180        H193   1.084       .  S
C181        C182   1.407       .  A
C181        C184   1.477       .  S
C182        C183   1.399       .  A
C182        H194   1.082       .  S
C183        H195   1.083       .  S
C184        C185   1.341       .  D
C184        H196   1.088       .  S
C185        C186   1.476       .  S
C185        H197   1.087       .  S
C186        C187   1.401   1_545  A
C186        C191   1.405       .  A
C187        C188   1.398       .  A
C187        H198   1.083       .  S
C188        C189   1.405   1_565  A
C188        H199   1.083       .  S
C189        C190   1.402       .  A
C190        C191   1.396       .  A
C190        H200   1.084       .  S
C191        H201   1.083       .  S
C202        C203   1.402       .  A
C202        C207   1.404       .  A
C203        C204   1.399       .  A
C203        H216   1.083       .  S
C204        C205   1.405       .  A
C204        H217   1.083       .  S
C205        C206   1.408       .  A
C205        C208   1.487       .  S
C206        C207   1.397       .  A
C206        H218   1.082       .  S
C207        H219   1.083       .  S
C208        C209   1.347       .  D
C208        H220   1.086       .  S
C209        C210   1.485       .  S
C209        H221   1.086       .  S
C210        C211   1.403   1_545  A
C210        C215   1.407       .  A
C211        C212   1.398       .  A
C211        H222   1.084       .  S
C212        C213   1.405   1_565  A
C212        H223   1.082       .  S
C213        C214   1.405       .  A
C214        C215   1.399       .  A
C214        H224   1.083       .  S
C215        H225   1.082       .  S
C226        C227   1.406       .  A
C226        C231   1.404   1_545  A
C227        C228   1.397       .  A
C227        H240   1.082       .  S
C228        C229   1.402       .  A
C228        H241   1.084       .  S
C229        C230   1.408   1_545  A
C229        C232   1.484       .  S
C230        C231   1.399       .  A
C230        H242   1.082       .  S
C231        H243   1.083       .  S
C232        C233   1.346   1_545  D
C232        H244   1.087       .  S
C233        C234   1.483       .  S
C233        H245   1.086       .  S
C234        C235   1.404       .  A
C234        C239   1.407       .  A
C235        C236   1.399       .  A
C235        H246   1.083       .  S
C236        C237   1.403       .  A
C236        H247   1.083       .  S
C237        C238   1.403       .  A
C238        C239   1.396       .  A
C238        H248   1.083   1_565  S
C239        H249   1.082   1_565  S
C250        C251   1.405       .  A
C250        C255   1.403   1_545  A
C251        C252   1.400       .  A
C251        H264   1.083       .  S
C252        C253   1.402       .  A
C252        H265   1.083       .  S
C253        C254   1.407   1_545  A
C253        C256   1.482       .  S
C254        C255   1.399       .  A
C254        H266   1.083       .  S
C255        H267   1.084       .  S
C256        C257   1.344       .  D
C256        H268   1.087       .  S
C257        C258   1.481       .  S
C257        H269   1.087   1_545  S
C258        C259   1.402       .  A
C258        C263   1.407   1_545  A
C259        C260   1.396       .  A
C259        H270   1.083       .  S
C260        C261   1.403   1_545  A
C260        H271   1.083       .  S
C261        C262   1.404       .  A
C262        C263   1.400       .  A
C262        H272   1.083       .  S
C263        H273   1.082       .  S
N274        C278   1.363       .  A
N274        C275   1.362       .  A
N274        N281   1.431   1_565  S
C275        C276   1.382       .  A
C275        C534   1.478       .  S
C276        C277   1.373       .  A
C276        H279   1.082       .  S
C277        C278   1.381       .  A
C277        H280   1.083       .  S
C278        C510   1.478       .  S
N281        C285   1.361       .  A
N281        C282   1.361       .  A
C282        C283   1.382       .  A
C282        C451   1.478       .  S
C283        C284   1.374       .  A
C283        H286   1.082       .  S
C284        C285   1.382       .  A
C284        H287   1.082       .  S
C285        C475   1.480       .  S
N288        C292   1.365       .  A
N288        C289   1.366       .  A
N288        N295   1.432       .  S
C289        C290   1.381       .  A
C289        C438   1.487       .  S
C290        C291   1.372       .  A
C290        H293   1.082       .  S
C291        C292   1.383       .  A
C291        H294   1.082       .  S
C292        C414   1.486       .  S
N295        C299   1.364       .  A
N295        C296   1.365       .  A
C296        C297   1.382       .  A
C296        C355   1.482       .  S
C297        C298   1.371       .  A
C297        H300   1.082       .  S
C298        C299   1.381       .  A
C298        H301   1.082       .  S
C299        C390   1.482       .  S
C302        N320   1.350   1_545  A
C302        C339   1.459       .  S
C302        C523   1.475       .  S
N303        N320   1.326   1_645  A
N303        N325   1.321       .  A
N303       Co340   2.089   1_545  S
C304        N329   1.341       .  A
C304        C342   1.463       .  S
C304        H349   1.081       .  S
H305        C346   1.081       .  S
C306        N330   1.341       .  A
C306        C310   1.461   1_565  S
C306        H335   1.081       .  S
Co307       N325   2.089       .  S
Co307       N315   2.082       .  S
Co307      Cl351   2.454       .  S
N308        C346   1.345       .  A
N308        N315   1.320       .  A
N308       Co309   2.097       .  S
Co309       N312   2.092       .  S
Co309      Cl351   2.453       .  S
C310        N348   1.352       .  A
C310        C486   1.480       .  S
N311        N318   1.319       .  A
N311        N341   1.323       .  A
N311       Co344   2.076       .  S
N312        N330   1.321   1_545  A
N312        N348   1.325       .  A
N313        C342   1.353       .  A
N313        N323   1.327       .  A
H314        C339   1.081       .  S
N315        N336   1.324       .  A
N316        N334   1.320   1_545  A
N316        N321   1.325       .  A
C317        N321   1.350       .  A
C317        C345   1.456   1_545  S
C317        C462   1.470       .  S
N318        C333   1.345       .  A
N318       Co340   2.097       .  S
C319        N347   1.337   1_455  A
C319        C322   1.458       .  S
C319        H353   1.081       .  S
C322        N343   1.354   1_545  A
C322        C499   1.480       .  S
N323        N329   1.319       .  A
N324        C350   1.343       .  A
N324        N326   1.320       .  A
N325        C339   1.341   1_655  A
N326        N354   1.325       .  A
H327        C350   1.081       .  S
H328        C345   1.081       .  S
N330       Co344   2.086       .  S
N331        N343   1.327   1_645  A
N331        N347   1.320       .  A
C332        N336   1.350       .  A
C332        C346   1.467       .  S
C332        C427   1.485       .  S
C333        C352   1.466       .  S
C333        H337   1.081       .  S
N334        C345   1.339       .  A
C338        N354   1.352       .  A
C338        C350   1.463       .  S
C338        C366   1.483       .  S
Co340      Cl351   2.455   1_565  S
N341        C352   1.348       .  A
C342        C403   1.486       .  S
Co344      Cl351   2.454   1_565  S
C352        C379   1.481       .  S
C355        C356   1.402       .  A
C355        C360   1.405       .  A
C356        C357   1.398       .  A
C356        H369   1.083       .  S
C357        C358   1.405       .  A
C357        H370   1.083       .  S
C358        C359   1.410       .  A
C358        C361   1.491       .  S
C359        C360   1.401       .  A
C359        H371   1.081       .  S
C360        H372   1.083       .  S
C361        C362   1.350       .  D
C361        H373   1.084       .  S
C362        C363   1.493       .  S
C362        H374   1.085       .  S
C363        C364   1.406       .  A
C363        C368   1.409       .  A
C364        C365   1.401       .  A
C364        H375   1.083       .  S
C365        C366   1.405       .  A
C365        H376   1.082       .  S
C366        C367   1.404       .  A
C367        C368   1.399       .  A
C367        H377   1.083       .  S
C368        H378   1.081       .  S
C379        C380   1.404       .  A
C379        C384   1.405       .  A
C380        C381   1.401       .  A
C380        H393   1.082       .  S
C381        C382   1.405       .  A
C381        H394   1.083       .  S
C382        C383   1.408       .  A
C382        C385   1.489       .  S
C383        C384   1.398       .  A
C383        H395   1.082       .  S
C384        H396   1.083       .  S
C385        C386   1.348       .  D
C385        H397   1.084       .  S
C386        C387   1.490       .  S
C386        H398   1.085       .  S
C387        C388   1.405       .  A
C387        C392   1.410       .  A
C388        C389   1.397       .  A
C388        H399   1.083       .  S
C389        C390   1.402       .  A
C389        H400   1.083       .  S
C390        C391   1.404       .  A
C391        C392   1.401       .  A
C391        H401   1.083       .  S
C392        H402   1.080       .  S
C403        C404   1.405       .  A
C403        C408   1.406       .  A
C404        C405   1.399       .  A
C404        H417   1.082       .  S
C405        C406   1.404       .  A
C405        H418   1.083       .  S
C406        C407   1.410       .  A
C406        C409   1.494       .  S
C407        C408   1.404       .  A
C407        H419   1.082       .  S
C408        H420   1.083       .  S
C409        C410   1.350       .  D
C409        H421   1.083       .  S
C410        C411   1.497       .  S
C410        H422   1.085       .  S
C411        C412   1.406       .  A
C411        C416   1.412       .  A
C412        C413   1.400       .  A
C412        H423   1.083       .  S
C413        C414   1.404       .  A
C413        H424   1.083       .  S
C414        C415   1.404       .  A
C415        C416   1.402       .  A
C415        H425   1.083       .  S
C416        H426   1.080       .  S
C427        C428   1.405       .  A
C427        C432   1.405       .  A
C428        C429   1.398       .  A
C428        H441   1.083       .  S
C429        C430   1.404       .  A
C429        H442   1.083       .  S
C430        C431   1.409       .  A
C430        C433   1.493       .  S
C431        C432   1.404       .  A
C431        H443   1.081       .  S
C432        H444   1.082       .  S
C433        C434   1.350       .  D
C433        H445   1.086       .  S
C434        C435   1.492       .  S
C434        H446   1.085       .  S
C435        C436   1.408       .  A
C435        C440   1.405       .  A
C436        C437   1.401       .  A
C436        H447   1.082       .  S
C437        C438   1.405       .  A
C437        H448   1.083       .  S
C438        C439   1.404       .  A
C439        C440   1.400       .  A
C439        H449   1.083       .  S
C440        H450   1.083       .  S
C451        C452   1.404       .  A
C451        C456   1.403       .  A
C452        C453   1.395       .  A
C452        H465   1.083       .  S
C453        C454   1.401       .  A
C453        H466   1.084       .  S
C454        C455   1.407       .  A
C454        C457   1.477       .  S
C455        C456   1.399       .  A
C455        H467   1.082       .  S
C456        H468   1.083       .  S
C457        C458   1.341       .  D
C457        H469   1.088       .  S
C458        C459   1.476       .  S
C458        H470   1.087       .  S
C459        C460   1.400   1_545  A
C459        C464   1.405       .  A
C460        C461   1.398       .  A
C460        H471   1.083       .  S
C461        C462   1.405   1_565  A
C461        H472   1.083       .  S
C462        C463   1.402       .  A
C463        C464   1.396       .  A
C463        H473   1.084       .  S
C464        H474   1.083       .  S
C475        C476   1.402       .  A
C475        C480   1.404       .  A
C476        C477   1.399       .  A
C476        H489   1.083       .  S
C477        C478   1.405       .  A
C477        H490   1.083       .  S
C478        C479   1.408       .  A
C478        C481   1.487       .  S
C479        C480   1.397       .  A
C479        H491   1.082       .  S
C480        H492   1.083       .  S
C481        C482   1.347       .  D
C481        H493   1.086       .  S
C482        C483   1.485       .  S
C482        H494   1.086       .  S
C483        C484   1.403   1_545  A
C483        C488   1.407       .  A
C484        C485   1.398       .  A
C484        H495   1.084       .  S
C485        C486   1.405   1_565  A
C485        H496   1.082       .  S
C486        C487   1.405       .  A
C487        C488   1.399       .  A
C487        H497   1.083       .  S
C488        H498   1.082       .  S
C499        C500   1.406       .  A
C499        C504   1.404   1_545  A
C500        C501   1.397       .  A
C500        H513   1.082       .  S
C501        C502   1.402       .  A
C501        H514   1.084       .  S
C502        C503   1.408   1_545  A
C502        C505   1.484       .  S
C503        C504   1.399       .  A
C503        H515   1.082       .  S
C504        H516   1.083       .  S
C505        C506   1.346   1_545  D
C505        H517   1.087       .  S
C506        C507   1.483       .  S
C506        H518   1.086       .  S
C507        C508   1.404       .  A
C507        C512   1.407       .  A
C508        C509   1.399       .  A
C508        H519   1.083       .  S
C509        C510   1.403       .  A
C509        H520   1.083       .  S
C510        C511   1.403       .  A
C511        C512   1.396       .  A
C511        H521   1.083   1_565  S
C512        H522   1.082   1_565  S
C523        C524   1.405       .  A
C523        C528   1.403   1_545  A
C524        C525   1.400       .  A
C524        H537   1.083       .  S
C525        C526   1.402       .  A
C525        H538   1.083       .  S
C526        C527   1.407   1_545  A
C526        C529   1.482       .  S
C527        C528   1.399       .  A
C527        H539   1.083       .  S
C528        H540   1.084       .  S
C529        C530   1.344       .  D
C529        H541   1.087       .  S
C530        C531   1.481       .  S
C530        H542   1.087   1_545  S
C531        C532   1.402       .  A
C531        C536   1.407   1_545  A
C532        C533   1.396       .  A
C532        H543   1.083       .  S
C533        C534   1.403   1_545  A
C533        H544   1.083       .  S
C534        C535   1.404       .  A
C535        C536   1.400       .  A
C535        H545   1.083       .  S
C536        H546   1.082       .  S
