geometry optimzed in LAMMPS
_audit_creation_date              2020-11-30 
_audit_creation_method            'lammps2cif' 
_symmetry_space_group_name_H-M    'P1' 
_symmetry_Int_Tables_number       1 
_symmetry_cell_setting            triclinic 
loop_ 
_symmetry_equiv_pos_as_xyz 
  x,y,z 
_cell_length_a                    32.82345309 
_cell_length_b                    33.01532180011899 
_cell_length_c                    42.69092833333853 
_cell_angle_alpha                 91.0616361439509 
_cell_angle_beta                  90.84807857663856 
_cell_angle_gamma                 95.81142104783888 
loop_ 
_atom_site_label 
_atom_site_type_symbol 
_atom_site_fract_x 
_atom_site_fract_y 
_atom_site_fract_z 
_atom_site_charge 
C1          C  0.30235193  0.92267356  0.24969996     0.04100
C2          C  0.28241476  0.92806739  0.27815103    -0.12100
C3          C  0.24015794  0.93129219  0.27839161     0.01600
C4          C  0.21793243  0.92895179  0.25001248    -0.10600
C5          C  0.23734857  0.92398022  0.22137338     0.04100
C6          C  0.27970028  0.92059837  0.22134456    -0.10000
H7          H  0.29991339  0.93055240  0.29995681     0.09700
H8          H  0.18535040  0.93200225  0.25018168     0.07200
H9          H  0.29512363  0.91707187  0.19934234     0.07000
C10         C  0.60960446  0.92349652  0.24826975     0.04100
C11         C  0.63151627  0.92479680  0.27687968    -0.12100
C12         C  0.67461120  0.92812347  0.27738712     0.01600
C13         C  0.69532855  0.93042188  0.24875707    -0.10600
C14         C  0.67382362  0.92758873  0.21997040     0.04100
C15         C  0.63086203  0.92413439  0.21999989    -0.10000
H16         H  0.61494472  0.92337372  0.29865581     0.09700
H17         H  0.72846809  0.93499396  0.24881352     0.07200
H18         H  0.61372900  0.92137599  0.19804762     0.07000
C19         C  0.00909208  0.31683095  0.24791606     0.04100
C20         C  0.01211990  0.29752721  0.21847930    -0.12100
C21         C  0.01046385  0.25489609  0.21574511     0.01600
C22         C  0.00654663  0.23159258  0.24298711    -0.10600
C23         C  0.00322712  0.25025277  0.27253772     0.04100
C24         C  0.00411638  0.29288226  0.27485567    -0.10000
H25         H  0.01521415  0.31570430  0.19760333     0.09700
H26         H  0.00467900  0.19866500  0.24113502     0.07200
H27         H  0.00160789  0.30738945  0.29762454     0.07000
C28         C  0.01738451  0.62426971  0.24892612     0.04100
C29         C  0.02355386  0.64753099  0.27695899    -0.12100
C30         C  0.02602771  0.69020186  0.27655398     0.01600
C31         C  0.02223060  0.70965146  0.24807229    -0.10600
C32         C  0.01514833  0.68743748  0.22008927     0.04100
C33         C  0.01237012  0.64462826  0.22043540    -0.10000
H34         H  0.02579748  0.63250312  0.29916659     0.09700
H35         H  0.02304123  0.74257885  0.24775604     0.07200
H36         H  0.00724674  0.62744577  0.19863147     0.07000
O37         O  0.94749997  0.03964997  0.03148950    -0.79200
O38         O  0.89544415  0.97427131  0.46248785    -0.79200
O39         O  0.98221169  0.03219625  0.46265290    -0.79200
O40         O  0.88245966  0.91198095  0.03316188    -0.79200
O41         O  0.95495381  0.99858178  0.42087908    -0.79300
O42         O  0.88638894  0.97845556  0.03793499    -0.79200
O43         O  0.88449825  0.90770264  0.46775138    -0.79200
O44         O  0.01250883  0.04462565  0.02256945    -0.79200
C45         C  0.98186936  0.06029122  0.03346655     1.10500
C46         C  0.87252488  0.94127165  0.45848879     1.10400
C47         C  0.96897799  0.03199839  0.43374273     1.10500
C48         C  0.86682254  0.94410576  0.04163257     1.10400
O49         O  0.94283366  0.93001242  0.07060839    -0.79200
O50         O  0.01559824  0.96204598  0.44892628    -0.79300
O51         O  0.03650242  0.96401656  0.02172828    -0.79200
O52         O  0.96768941  0.88132270  0.47048094    -0.79200
O53         O  0.94613791  0.91836140  0.43350705    -0.79200
O54         O  0.00440206  0.98872957  0.06189187    -0.79200
O55         O  0.96557114  0.88963641  0.03479698    -0.79200
O56         O  0.05776128  0.00851392  0.47449364    -0.79200
Co57       Co  0.94519596  0.98390959  0.04774131     1.51500
Co58       Co  0.95456285  0.97047762  0.45886889     1.51700
Co59       Co  0.00696123  0.98897785  0.49217098     1.51600
Co60       Co  0.92695224  0.89636155  0.50065866     1.51500
O61         O  0.95517032  0.95411688  0.50324636    -1.41100
C62         C  0.96016694  0.89839698  0.06314090     1.10400
C63         C  0.05151607  0.98170618  0.45276049     1.10500
C64         C  0.03427083  0.97119022  0.05098889     1.10400
C65         C  0.96399459  0.88797384  0.44176645     1.10400
C66         C  0.99513204  0.73736375  0.35227882    -0.29600
C67         C  0.01989090  0.77455135  0.35246101     0.06300
C68         C  0.05101916  0.78107349  0.33046417     0.26000
C69         C  0.05546905  0.75150315  0.30728669    -0.11800
C70         C  0.02856674  0.71545847  0.30558439    -0.25700
C71         C  0.99923052  0.70798688  0.32896313     0.36800
C72         C  0.01093235  0.80676573  0.37475395     0.06400
F73         F  0.07604319  0.81643941  0.33079413    -0.19500
H74         H  0.07844120  0.75767027  0.28956342     0.16200
F75         F  0.97213483  0.67407849  0.32769124    -0.23200
H76         H  0.97105743  0.73205629  0.36925947     0.18000
C77         C  0.99274071  0.84101057  0.36448611     0.26000
C78         C  0.97778354  0.86772130  0.38631674    -0.11700
C79         C  0.98120268  0.86076884  0.41859983    -0.25800
C80         C  0.00138833  0.82736164  0.42861711     0.36900
C81         C  0.01571564  0.80056691  0.40680302    -0.27400
F82         F  0.98759405  0.84739155  0.33341554    -0.19500
H83         H  0.96295338  0.89340778  0.37796194     0.16200
F84         F  0.00651022  0.81973601  0.45948401    -0.23200
H85         H  0.02963951  0.77419125  0.41492049     0.18000
C86         C  0.95735663  0.82990986  0.13365675    -0.27300
C87         C  0.98894148  0.80550575  0.12675661     0.06300
C88         C  0.01263766  0.81398301  0.10006329     0.26000
C89         C  0.00412244  0.84551318  0.08037066    -0.11800
C90         C  0.97198506  0.86939193  0.08685336    -0.25700
C91         C  0.94903245  0.86175724  0.11402916     0.36800
C92         C  0.99690335  0.77142116  0.14751397     0.06400
F93         F  0.04289741  0.79070221  0.09226022    -0.19500
H94         H  0.02218796  0.85071417  0.05951526     0.16200
F95         F  0.91726299  0.88357361  0.12074920    -0.23200
H96         H  0.93891688  0.82408143  0.15423364     0.18000
C97         C  0.03620695  0.76873804  0.16039086     0.26000
C98         C  0.04258048  0.73876686  0.18210400    -0.11700
C99         C  0.01008879  0.71079853  0.19132455    -0.25800
C100        C  0.97114880  0.71228837  0.17756641     0.36900
C101        C  0.96466705  0.74243044  0.15584399    -0.27400
F102        F  0.06784764  0.79678322  0.15368548    -0.19500
H103        H  0.07251597  0.73876783  0.19315113     0.16200
F104        F  0.93885628  0.68660929  0.18685617    -0.23200
H105        H  0.93417289  0.74390402  0.14616561     0.18000
C106        C  0.00180638  0.13725011  0.40162381    -0.27300
C107        C  0.97773208  0.13678430  0.37403990     0.06300
C108        C  0.94853010  0.10331517  0.36791989     0.26000
C109        C  0.94482271  0.07034839  0.38819092    -0.11800
C110        C  0.96972311  0.07000143  0.41530715    -0.25700
C111        C  0.99753283  0.10447615  0.42233553     0.36800
C112        C  0.98512436  0.16935376  0.35043752     0.06400
F113        F  0.92511266  0.10139968  0.34135319    -0.19500
H114        H  0.92302151  0.04442672  0.38214616     0.16200
F115        F  0.02203212  0.10571105  0.44829656    -0.23200
H116        H  0.02446290  0.16276161  0.40682224     0.18000
C117        C  0.95324243  0.19143041  0.33979066     0.26000
C118        C  0.95974661  0.21900282  0.31527919    -0.11700
C119        C  0.99790096  0.22460904  0.30068601    -0.25800
C120        C  0.03000803  0.20330684  0.31174731     0.36900
C121        C  0.02373735  0.17627381  0.33659268    -0.27400
F122        F  0.91569044  0.18594186  0.35285356    -0.19500
H123        H  0.93461229  0.23504567  0.30698338     0.16200
F124        F  0.06723545  0.20818295  0.29811603    -0.23200
H125        H  0.04865320  0.15949153  0.34425164     0.18000
C126        C  0.03337871  0.18158371  0.15019581    -0.27300
C127        C  0.00437566  0.18928291  0.12703361     0.06300
C128        C  0.97935209  0.22089140  0.13250957     0.26000
C129        C  0.98265056  0.24323485  0.16086501    -0.11800
C130        C  0.01056397  0.23430675  0.18443302    -0.25700
C131        C  0.03654820  0.20379514  0.17851212     0.36800
C132        C  0.99830584  0.16181453  0.09880949     0.06400
F133        F  0.95133876  0.22985953  0.11066513    -0.19500
H134        H  0.96228869  0.26659179  0.16488623     0.16200
F135        F  0.06476003  0.19512336  0.20029207    -0.23200
H136        H  0.05266885  0.15715671  0.14691237     0.18000
C137        C  0.03189568  0.14929929  0.08231449     0.26000
C138        C  0.02613160  0.11810697  0.05946695    -0.11700
C139        C  0.98680155  0.09882282  0.05243642    -0.25800
C140        C  0.95291690  0.11360507  0.06721933     0.36900
C141        C  0.95876379  0.14451136  0.09020331    -0.27400
F142        F  0.07049250  0.16638511  0.08893767    -0.19500
H143        H  0.05276680  0.10777488  0.04833547     0.16200
F144        F  0.91415356  0.09670838  0.06089313    -0.23200
H145        H  0.93232516  0.15323842  0.10255663     0.18000
C146        C  0.04280766  0.51723897  0.26833075    -0.27300
C147        C  0.01253701  0.49285955  0.25118740     0.06300
C148        C  0.98372906  0.51170963  0.23336447     0.26000
C149        C  0.98557257  0.55431324  0.23250964    -0.11800
C150        C  0.01586828  0.57892663  0.24970405    -0.25700
C151        C  0.04446377  0.55977136  0.26779094     0.36800
C152        C  0.01209681  0.44786465  0.25118435     0.06400
F153        F  0.95439719  0.48888050  0.21622947    -0.19500
H154        H  0.96300550  0.56809400  0.21861321     0.16200
F155        F  0.07484609  0.58207190  0.28426347    -0.23200
H156        H  0.06534287  0.50321204  0.28210212     0.18000
C157        C  0.04432540  0.42894404  0.23778944     0.26000
C158        C  0.04332040  0.38640513  0.23700091    -0.11700
C159        C  0.01059768  0.36199325  0.25014076    -0.25800
C160        C  0.97880283  0.38103297  0.26419837     0.36900
C161        C  0.97941656  0.42359306  0.26440604    -0.27400
F162        F  0.07626560  0.45165715  0.22478806    -0.19500
H163        H  0.06816275  0.37242655  0.22611244     0.16200
F164        F  0.94649443  0.35841109  0.27677088    -0.23200
H165        H  0.95438638  0.43768523  0.27491435     0.18000
C166        C  0.79086219  0.97413638  0.40286682    -0.27300
C167        C  0.77156785  0.93625695  0.39258034     0.06300
C168        C  0.78206150  0.90079979  0.40708245     0.26000
C169        C  0.81286269  0.90307191  0.43020189    -0.11800
C170        C  0.83442928  0.94066086  0.43902816    -0.25700
C171        C  0.82220859  0.97646549  0.42569302     0.36800
C172        C  0.74498868  0.93329736  0.36404312     0.06400
F173        F  0.76371798  0.86371079  0.39784738    -0.19500
H174        H  0.82130553  0.87497771  0.43994105     0.16200
F175        F  0.84203624  0.01354335  0.43319689    -0.23200
H176        H  0.78345637  0.00178226  0.39177919     0.18000
C177        C  0.71004894  0.95448007  0.36148797     0.26000
C178        C  0.68685804  0.95231342  0.33349662    -0.11700
C179        C  0.69827287  0.92922629  0.30756003    -0.25800
C180        C  0.73299238  0.90761752  0.31055333     0.36900
C181        C  0.75598495  0.90985924  0.33838659    -0.27400
F182        F  0.69820709  0.97690505  0.38607273    -0.19500
H183        H  0.66041603  0.96935154  0.33191162     0.16200
F184        F  0.74453502  0.88368100  0.28675928    -0.23200
H185        H  0.78294934  0.89351960  0.33979497     0.18000
C186        C  0.70796053  0.95168771  0.13693967    -0.27300
C187        C  0.74212668  0.92960342  0.13441877     0.06300
C188        C  0.75341009  0.90655095  0.15989360     0.26000
C189        C  0.73066253  0.90551600  0.18731043    -0.11800
C190        C  0.69653005  0.92781670  0.19006283    -0.25700
C191        C  0.68525891  0.95084618  0.16444031     0.36800
C192        C  0.76817975  0.93353083  0.10645155     0.06400
F193        F  0.78754101  0.88653618  0.15879602    -0.19500
H194        H  0.74000712  0.88746834  0.20657590     0.16200
F195        F  0.65347833  0.97400234  0.16639085    -0.23200
H196        H  0.69929069  0.97016527  0.11771491     0.18000
C197        C  0.77831870  0.89900571  0.08972032     0.26000
C198        C  0.80843433  0.90287119  0.06680958    -0.11700
C199        C  0.82878494  0.94124353  0.06016228    -0.25800
C200        C  0.81586074  0.97612490  0.07514049     0.36900
C201        C  0.78593136  0.97211013  0.09808371    -0.27400
F202        F  0.76002207  0.86146351  0.09627860    -0.19500
H203        H  0.81719643  0.87557370  0.05539168     0.16200
F204        F  0.83385690  0.01401234  0.06924541    -0.23200
H205        H  0.77823303  0.99908805  0.11058618     0.18000
C206        C  0.19592177  0.91900575  0.35967001    -0.27300
C207        C  0.17110598  0.95116190  0.36063450     0.06300
C208        C  0.17095335  0.97785643  0.33552054     0.26000
C209        C  0.19460685  0.97186476  0.30932516    -0.11800
C210        C  0.21885971  0.93922243  0.30781196    -0.25700
C211        C  0.22006748  0.91321091  0.33348997     0.36800
C212        C  0.14303610  0.95558957  0.38666802     0.06400
F213        F  0.14670662  0.00882239  0.33591802    -0.19500
H214        H  0.19343841  0.99232241  0.28985747     0.16200
F215        F  0.24296932  0.88121978  0.33262737    -0.23200
H216        H  0.19593952  0.89806003  0.37889842     0.18000
C217        C  0.10462227  0.93291526  0.38623723     0.26000
C218        C  0.07574244  0.94091482  0.40849183    -0.11700
C219        C  0.08450669  0.97180114  0.43152053    -0.25800
C220        C  0.12363724  0.99368501  0.43243821     0.36900
C221        C  0.15260186  0.98563950  0.40999827    -0.27400
F222        F  0.09431099  0.90442145  0.36336168    -0.19500
H223        H  0.04602093  0.92364024  0.40701055     0.16200
F224        F  0.13352506  0.02371564  0.45417195    -0.23200
H225        H  0.18208590  0.00360888  0.41023014     0.18000
C226        C  0.13498277  0.94083329  0.08516133    -0.27300
C227        C  0.12760075  0.94343432  0.11743941     0.06300
C228        C  0.08999042  0.95543104  0.12741494     0.26000
C229        C  0.06008724  0.96383842  0.10560912    -0.11800
C230        C  0.06689534  0.96092189  0.07321627    -0.25700
C231        C  0.10486349  0.94929121  0.06313389     0.36800
C232        C  0.15876810  0.93407464  0.14105317     0.06400
F233        F  0.08251601  0.95998727  0.15841326    -0.19500
H234        H  0.03143525  0.97286741  0.11427398     0.16200
F235        F  0.11320158  0.94666845  0.03216344    -0.23200
H236        H  0.16396171  0.93194089  0.07705414     0.18000
C237        C  0.14882077  0.90437020  0.16362464     0.26000
C238        C  0.17560080  0.89974634  0.18875665    -0.11700
C239        C  0.21288755  0.92452695  0.19187298    -0.25800
C240        C  0.22385279  0.95285272  0.16843462     0.36900
C241        C  0.19698223  0.95742039  0.14315359    -0.27400
F242        F  0.11251874  0.88070386  0.16185580    -0.19500
H243        H  0.16661815  0.87762689  0.20644519     0.16200
F244        F  0.25905133  0.97813568  0.17119669    -0.23200
H245        H  0.20502522  0.98069226  0.12613353     0.18000
C246        C  0.40720138  0.88661793  0.23792278    -0.27300
C247        C  0.43311636  0.92080458  0.24848376     0.06300
C248        C  0.41560548  0.95525247  0.25989747     0.26000
C249        C  0.37304089  0.95541256  0.26055144    -0.11800
C250        C  0.34724571  0.92150442  0.24953829    -0.25700
C251        C  0.36458364  0.88693688  0.23837870     0.36800
C252        C  0.47827801  0.92050714  0.24764516     0.06400
F253        F  0.43965943  0.98846538  0.27095543    -0.19500
H254        H  0.36011531  0.98221878  0.26938285     0.16200
F255        F  0.34026568  0.85329181  0.22849806    -0.23200
H256        H  0.42002388  0.85979424  0.22903738     0.18000
C257        C  0.49768697  0.88918696  0.26172924     0.26000
C258        C  0.54045137  0.89032837  0.26202175    -0.11700
C259        C  0.56442149  0.92219649  0.24773649    -0.25800
C260        C  0.54502834  0.95295725  0.23297972     0.36900
C261        C  0.50236407  0.95219131  0.23313853    -0.27400
F262        F  0.47537500  0.85810632  0.27594691    -0.19500
H263        H  0.55492362  0.86624471  0.27329470     0.16200
F264        F  0.56745863  0.98428371  0.21911103    -0.23200
H265        H  0.48804471  0.97637760  0.22187229     0.18000
C266        C  0.30485456  0.94525174  0.74814336     0.04100
C267        C  0.28560701  0.94716448  0.77728938    -0.12100
C268        C  0.24277788  0.94434214  0.77875365     0.01600
C269        C  0.21921022  0.93911094  0.75110607    -0.10600
C270        C  0.23789411  0.93734902  0.72190653     0.04100
C271        C  0.28078116  0.94058125  0.72051350    -0.10000
H272        H  0.30385399  0.95140010  0.79868557     0.09700
H273        H  0.18610916  0.93759017  0.75230597     0.07200
H274        H  0.29540668  0.93954595  0.69796063     0.07000
C275        C  0.61112806  0.94472653  0.74934003     0.04100
C276        C  0.63207736  0.94341286  0.77823694    -0.12100
C277        C  0.67428301  0.93943316  0.77934448     0.01600
C278        C  0.69550794  0.93754550  0.75110231    -0.10600
C279        C  0.67503872  0.93799658  0.72194003     0.04100
C280        C  0.63266229  0.94128948  0.72138478    -0.10000
H281        H  0.61544943  0.94532847  0.79986434     0.09700
H282        H  0.72837818  0.93651206  0.75189759     0.07200
H283        H  0.61602154  0.94004442  0.69924304     0.07000
C284        C  0.98453564  0.31202500  0.74148919     0.04100
C285        C  0.98913270  0.29242547  0.71249922    -0.12100
C286        C  0.99107208  0.25029518  0.71063012     0.01600
C287        C  0.98838961  0.22761536  0.73813921    -0.10600
C288        C  0.98429229  0.24659753  0.76753657     0.04100
C289        C  0.98194601  0.28896484  0.76895676    -0.10000
H290        H  0.99106139  0.31002483  0.69128815     0.09700
H291        H  0.98840787  0.19482954  0.73649064     0.07200
H292        H  0.97914180  0.30414031  0.79142543     0.07000
C293        C  0.98804925  0.61746438  0.74980798     0.04100
C294        C  0.99056753  0.63766881  0.77922048    -0.12100
C295        C  0.99560363  0.68027895  0.78112623     0.01600
C296        C  0.99772131  0.70261689  0.75363280    -0.10600
C297        C  0.99488823  0.68323002  0.72421325     0.04100
C298        C  0.98948180  0.64046352  0.72226602    -0.10000
H299        H  0.98909582  0.62028536  0.80053363     0.09700
H300        H  0.00077181  0.73562451  0.75515890     0.07200
H301        H  0.98778838  0.62519879  0.69952596     0.07000
O302        O  0.94692677  0.03061209  0.52989376    -0.79200
O303        O  0.89743780  0.98149500  0.96231385    -0.79200
O304        O  0.97984281  0.03809806  0.96266638    -0.79200
O305        O  0.88178905  0.90348113  0.53180206    -0.79200
O306        O  0.95735601  0.00233919  0.92044654    -0.79300
O307        O  0.88597417  0.96989260  0.53587728    -0.79200
O308        O  0.88464893  0.91546735  0.96953751    -0.79200
O309        O  0.01236693  0.03613035  0.52316031    -0.79200
C310        C  0.98096745  0.05148694  0.53297671     1.10500
C311        C  0.87350065  0.94903007  0.95949800     1.10400
C312        C  0.96765678  0.03659653  0.93351441     1.10500
C313        C  0.86669920  0.93576679  0.54074572     1.10400
O314        O  0.94197989  0.92147472  0.56886517    -0.79200
O315        O  0.01725514  0.96589091  0.95028951    -0.79300
O316        O  0.03544233  0.95472103  0.52114029    -0.79200
O317        O  0.96818439  0.88852114  0.97263897    -0.79200
O318        O  0.94569782  0.92271133  0.93462627    -0.79200
O319        O  0.00327547  0.97951892  0.56119626    -0.79200
O320        O  0.96484383  0.88095297  0.53321389    -0.79200
O321        O  0.05645928  0.01648148  0.97362059    -0.79200
Co322      Co  0.94439707  0.97531142  0.54638568     1.51500
Co323      Co  0.95620343  0.97565964  0.95914424     1.51700
Co324      Co  0.00648939  0.99671979  0.99233181     1.51600
Co325      Co  0.92746253  0.90436792  0.00237846     1.51500
O326        O  0.95541874  0.96190202  0.00443196    -1.41100
C327        C  0.95979162  0.89013121  0.56158783     1.10400
C328        C  0.05208417  0.98792524  0.95317686     1.10500
C329        C  0.03246659  0.96088674  0.55042195     1.10400
C330        C  0.96137501  0.89151126  0.94389332     1.10400
C331        C  0.96337652  0.72704895  0.85677936    -0.29600
C332        C  0.99361827  0.76008353  0.86017442     0.06300
C333        C  0.02769543  0.76267491  0.84068203     0.26000
C334        C  0.02992869  0.73405789  0.81652270    -0.11800
C335        C  0.99802122  0.70282523  0.81135010    -0.25700
C336        C  0.96540339  0.69850208  0.83238728     0.36800
C337        C  0.98697422  0.79416569  0.88142098     0.06400
F338        F  0.05749819  0.79418860  0.84389414    -0.19500
H339        H  0.05534635  0.73770933  0.80056310     0.16200
F340        F  0.93374388  0.66915889  0.82762375    -0.23200
H341        H  0.93691437  0.72492554  0.87175451     0.18000
C342        C  0.97201729  0.82927177  0.86954628     0.26000
C343        C  0.96403248  0.86115455  0.88982330    -0.11700
C344        C  0.97106953  0.85844178  0.92220323    -0.25800
C345        C  0.98664322  0.82312630  0.93386382     0.36900
C346        C  0.99432274  0.79130288  0.91354309    -0.27400
F347        F  0.96439249  0.83220249  0.83837307    -0.19500
H348        H  0.95202990  0.88775641  0.88022562     0.16200
F349        F  0.99398711  0.81885875  0.96494934    -0.23200
H350        H  0.00581607  0.76427476  0.92287583     0.18000
C351        C  0.96492672  0.83274471  0.63747688    -0.27300
C352        C  0.99020086  0.80269861  0.62905437     0.06300
C353        C  0.00852086  0.80372975  0.59962104     0.26000
C354        C  0.99965754  0.83326979  0.57818637    -0.11800
C355        C  0.97266241  0.86239117  0.58592699    -0.25700
C356        C  0.95636665  0.86259943  0.61623818     0.36800
C357        C  0.99475774  0.76890508  0.65040922     0.06400
F358        F  0.03368580  0.77530799  0.59126114    -0.19500
H359        H  0.01320104  0.83275356  0.55521329     0.16200
F360        F  0.93054732  0.89024391  0.62488465    -0.23200
H361        H  0.95086029  0.83230856  0.66028546     0.18000
C362        C  0.02804574  0.77035482  0.67145585     0.26000
C363        C  0.02930669  0.74047934  0.69409253    -0.11700
C364        C  0.99723611  0.70899014  0.69619595    -0.25800
C365        C  0.96473639  0.70673075  0.67425567     0.36900
C366        C  0.96362448  0.73655913  0.65149470    -0.27400
F367        F  0.05807108  0.80177840  0.67118872    -0.19500
H368        H  0.05442767  0.74292865  0.71100003     0.16200
F369        F  0.93259413  0.67768819  0.67637549    -0.23200
H370        H  0.93758916  0.73543411  0.63549279     0.18000
C371        C  0.99302059  0.14184413  0.89996759    -0.27300
C372        C  0.96662235  0.13988713  0.87367820     0.06300
C373        C  0.93766597  0.10590330  0.86928006     0.26000
C374        C  0.93700599  0.07321315  0.88972601    -0.11800
C375        C  0.96472524  0.07408769  0.91526670    -0.25700
C376        C  0.99175572  0.10946810  0.92092391     0.36800
C377        C  0.97302893  0.17010386  0.84857367     0.06400
F378        F  0.91162044  0.10335389  0.84415421    -0.19500
H379        H  0.91554475  0.04657653  0.88501937     0.16200
F380        F  0.01882290  0.11165609  0.94538173    -0.23200
H381        H  0.01566239  0.16780169  0.90356359     0.18000
C382        C  0.94738674  0.20130992  0.84482708     0.26000
C383        C  0.95195078  0.22702401  0.81900396    -0.11700
C384        C  0.98187765  0.22170735  0.79639406    -0.25800
C385        C  0.00829919  0.19111482  0.80092240     0.36900
C386        C  0.00376906  0.16566950  0.82671871    -0.27400
F387        F  0.91756804  0.20640694  0.86579532    -0.19500
H388        H  0.93118459  0.25021624  0.81611994     0.16200
F389        F  0.03862650  0.18575710  0.78043328    -0.23200
H390        H  0.02380088  0.14176003  0.82932734     0.18000
C391        C  0.02387959  0.17939032  0.64715876    -0.27300
C392        C  0.99499740  0.18410517  0.62321005     0.06300
C393        C  0.96704310  0.21339854  0.62728761     0.26000
C394        C  0.96684727  0.23587003  0.65537230    -0.11800
C395        C  0.99441196  0.22956558  0.67984378    -0.25700
C396        C  0.02377538  0.20198413  0.67514342     0.36800
C397        C  0.99126843  0.15512690  0.59603070     0.06400
F398        F  0.93934070  0.21967170  0.60440655    -0.19500
H399        H  0.94413824  0.25718642  0.65844871     0.16200
F400        F  0.05202831  0.19650004  0.69780393    -0.23200
H401        H  0.04546581  0.15683279  0.64481568     0.18000
C402        C  0.02597615  0.14407563  0.58021379     0.26000
C403        C  0.02230013  0.11173670  0.55829054    -0.11700
C404        C  0.98397945  0.09006681  0.55160796    -0.25800
C405        C  0.94896215  0.10297548  0.56604271     0.36900
C406        C  0.95277269  0.13489352  0.58805638    -0.27400
F407        F  0.06356473  0.16385126  0.58653521    -0.19500
H408        H  0.04968794  0.10268209  0.54745302     0.16200
F409        F  0.91110019  0.08335464  0.56041489    -0.23200
H410        H  0.92563173  0.14226547  0.60017271     0.18000
C411        C  0.01343003  0.50955117  0.76232382    -0.27300
C412        C  0.98204316  0.48676196  0.74516729     0.06300
C413        C  0.95241366  0.50701558  0.72938914     0.26000
C414        C  0.95456003  0.54964807  0.73065844    -0.11800
C415        C  0.98585811  0.57244463  0.74808941    -0.25700
C416        C  0.01530557  0.55196964  0.76393711     0.36800
C417        C  0.98151223  0.44198460  0.74327672     0.06400
F418        F  0.92208953  0.48562530  0.71223991    -0.19500
H419        H  0.93164217  0.56489241  0.71827372     0.16200
F420        F  0.04656272  0.57308858  0.78030220    -0.23200
H421        H  0.03659957  0.49434955  0.77446208     0.18000
C422        C  0.01362621  0.42426415  0.72871967     0.26000
C423        C  0.01437583  0.38203498  0.72829470    -0.11700
C424        C  0.98339125  0.35678063  0.74270652    -0.25800
C425        C  0.95107809  0.37451901  0.75714896     0.36900
C426        C  0.95008946  0.41686277  0.75723969    -0.27400
F427        F  0.04410932  0.44789859  0.71473753    -0.19500
H428        H  0.03944179  0.36898165  0.71693664     0.16200
F429        F  0.92011275  0.35086222  0.77052734    -0.23200
H430        H  0.92516019  0.43014491  0.76859373     0.18000
C431        C  0.79356081  0.98182743  0.90258076    -0.27300
C432        C  0.77241278  0.94410497  0.89374166     0.06300
C433        C  0.78093722  0.90920872  0.91004249     0.26000
C434        C  0.81189468  0.91163975  0.93307623    -0.11800
C435        C  0.83517524  0.94883817  0.94037782    -0.25700
C436        C  0.82444296  0.98436862  0.92574442     0.36800
C437        C  0.74438821  0.94085180  0.86585123     0.06400
F438        F  0.76008219  0.87245058  0.90308783    -0.19500
H439        H  0.81889746  0.88385116  0.94413293     0.16200
F440        F  0.84503123  0.02132763  0.93253314    -0.23200
H441        H  0.78764415  0.00918181  0.89040814     0.18000
C442        C  0.71438987  0.96795909  0.86165470     0.26000
C443        C  0.69083263  0.96658368  0.83393133    -0.11700
C444        C  0.69674903  0.93827352  0.80982871    -0.25800
C445        C  0.72559205  0.91007522  0.81461275     0.36900
C446        C  0.74925008  0.91163099  0.84219512    -0.27400
F447        F  0.70792631  0.99585444  0.88431138    -0.19500
H448        H  0.66875417  0.98851895  0.83092668     0.16200
F449        F  0.73095526  0.88093452  0.79261977    -0.23200
H450        H  0.77225151  0.89053352  0.84469981     0.18000
C451        C  0.71346936  0.95505526  0.63885674    -0.27300
C452        C  0.74551397  0.92991839  0.63763651     0.06300
C453        C  0.75354013  0.90687911  0.66400482     0.26000
C454        C  0.72975952  0.90879921  0.69077021    -0.11800
C455        C  0.69816083  0.93454777  0.69233151    -0.25700
C456        C  0.69017265  0.95764733  0.66587445     0.36800
C457        C  0.77247537  0.93056729  0.60993014     0.06400
F458        F  0.78567577  0.88404505  0.66458929    -0.19500
H459        H  0.73655947  0.89039458  0.71054279     0.16200
F460        F  0.66121110  0.98420558  0.66645635    -0.23200
H461        H  0.70696807  0.97341732  0.61897418     0.18000
C462        C  0.78384971  0.89447262  0.59600287     0.26000
C463        C  0.81271869  0.89618162  0.57207422    -0.11700
C464        C  0.83052255  0.93385338  0.56139233    -0.25800
C465        C  0.81712976  0.96989450  0.57415854     0.36900
C466        C  0.78859215  0.96808830  0.59812779    -0.27400
F467        F  0.76742200  0.85755310  0.60574839    -0.19500
H468        H  0.82222487  0.86796937  0.56273129     0.16200
F469        F  0.83299545  0.00717589  0.56470848    -0.23200
H470        H  0.78035068  0.99631321  0.60841054     0.18000
C471        C  0.19653796  0.92663634  0.85878428    -0.27300
C472        C  0.17430486  0.96071073  0.86184823     0.06300
C473        C  0.17686882  0.99003525  0.83832042     0.26000
C474        C  0.20038337  0.98487679  0.81192986    -0.11800
C475        C  0.22197527  0.95062820  0.80853597    -0.25700
C476        C  0.22046970  0.92165768  0.83230327     0.36800
C477        C  0.14649648  0.96496975  0.88842263     0.06400
F478        F  0.15494968  0.02270804  0.84008993    -0.19500
H479        H  0.20102257  0.00723751  0.79363775     0.16200
F480        F  0.24058179  0.88788004  0.82924209    -0.23200
H481        H  0.19484981  0.90370818  0.87666389     0.18000
C482        C  0.11417632  0.93482226  0.89392712     0.26000
C483        C  0.08435926  0.94192227  0.91588009    -0.11700
C484        C  0.08633881  0.97911546  0.93278422    -0.25800
C485        C  0.11970116  0.00853674  0.92813757     0.36900
C486        C  0.14945052  0.00138939  0.90618858    -0.27400
F487        F  0.10996599  0.89962060  0.87669197    -0.19500
H488        H  0.05903753  0.91872223  0.91896464     0.16200
F489        F  0.12242780  0.04517618  0.94338084    -0.23200
H490        H  0.17413238  0.02497203  0.90220727     0.18000
C491        C  0.13376518  0.93646874  0.58610725    -0.27300
C492        C  0.12366607  0.93311581  0.61789420     0.06300
C493        C  0.08292402  0.93580040  0.62671244     0.26000
C494        C  0.05337695  0.94335270  0.60434278    -0.11800
C495        C  0.06362951  0.94831370  0.57270078    -0.25700
C496        C  0.10395804  0.94359103  0.56355973     0.36800
C497        C  0.15600408  0.93060523  0.64218926     0.06400
F498        F  0.07214985  0.93369809  0.65726694    -0.19500
H499        H  0.02248804  0.94638381  0.61199612     0.16200
F500        F  0.11513087  0.94792666  0.53322811    -0.23200
H501        H  0.16500572  0.93445370  0.57887881     0.18000
C502        C  0.15181259  0.90078523  0.66533244     0.26000
C503        C  0.17951932  0.90231689  0.69058657    -0.11700
C504        C  0.21200893  0.93337592  0.69312188    -0.25800
C505        C  0.21726459  0.96222186  0.66932145     0.36900
C506        C  0.18951001  0.96067495  0.64401836    -0.27400
F507        F  0.12046224  0.87065153  0.66382430    -0.19500
H508        H  0.17514024  0.87968247  0.70860931     0.16200
F509        F  0.24753176  0.99340954  0.67159197    -0.23200
H510        H  0.19300396  0.98420222  0.62662699     0.18000
C511        C  0.41206308  0.92033631  0.72951877    -0.27300
C512        C  0.43615295  0.95258195  0.74464258     0.06300
C513        C  0.41706515  0.98303871  0.76040589     0.26000
C514        C  0.37426053  0.98070023  0.76141799    -0.11800
C515        C  0.35007422  0.94817698  0.74647504    -0.25700
C516        C  0.36937178  0.91811775  0.73031554     0.36800
C517        C  0.48099134  0.95193880  0.74624775     0.06400
F518        F  0.43982387  0.01411399  0.77570426    -0.19500
H519        H  0.35994020  0.00416637  0.77395558     0.16200
F520        F  0.34694781  0.88565902  0.71649309    -0.23200
H521        H  0.42645958  0.89637184  0.71765468     0.18000
C522        C  0.49794926  0.92346230  0.76516130     0.26000
C523        C  0.54026087  0.92174106  0.76637084    -0.11700
C524        C  0.56637085  0.94798838  0.74835651    -0.25800
C525        C  0.54929879  0.97659473  0.72930330     0.36900
C526        C  0.50685063  0.97868492  0.72849058    -0.27400
F527        F  0.47340121  0.89728275  0.78246217    -0.19500
H528        H  0.55263260  0.89929023  0.78096613     0.16200
F529        F  0.57365019  0.00281538  0.71186814    -0.23200
H530        H  0.49408411  0.00075325  0.71374811     0.18000
loop_ 
_geom_bond_atom_site_label_1 
_geom_bond_atom_site_label_2 
_geom_bond_distance 
_geom_bond_site_symmetry_2 
_ccdc_geom_bond_type 
C1            C2   1.405       .  A
C1            C6   1.408       .  A
C1          C250   1.478       .  S
C2            C3   1.402       .  A
C2            H7   1.084       .  S
C3            C4   1.402       .  A
C3          C210   1.478       .  S
C4            C5   1.402       .  A
C4            H8   1.084       .  S
C5            C6   1.406       .  A
C5          C239   1.485       .  S
C6            H9   1.084       .  S
C10          C11   1.406       .  A
C10          C15   1.402       .  A
C10         C259   1.479       .  S
C11          C12   1.407       .  A
C11          H16   1.083       .  S
C12          C13   1.407       .  A
C12         C179   1.492       .  S
C13          C14   1.405       .  A
C13          H17   1.083       .  S
C14          C15   1.403       .  A
C14         C190   1.488       .  S
C15          H18   1.083       .  S
C19          C20   1.408       .  A
C19          C24   1.410       .  A
C19         C159   1.488       .  S
C20          C21   1.406       .  A
C20          H25   1.084       .  S
C21          C22   1.407       .  A
C21         C130   1.489       .  S
C22          C23   1.404       .  A
C22          H26   1.084       .  S
C23          C24   1.406       .  A
C23         C119   1.485   1_455  S
C24          H27   1.084       .  S
C28          C29   1.411       .  A
C28          C33   1.416       .  A
C28         C150   1.494       .  S
C29          C30   1.403       .  A
C29          H34   1.083       .  S
C30          C31   1.395       .  A
C30          C70   1.477       .  S
C31          C32   1.394       .  A
C31          H35   1.085       .  S
C32          C33   1.407       .  A
C32          C99   1.478       .  S
C33          H36   1.083       .  S
O37          C45   1.258       .  A
O37         Co57   1.973   1_545  S
O38          C46   1.267       .  A
O38         Co58   1.965       .  S
O39          C47   1.302       .  A
O39         Co59   2.134   1_645  S
O40          C48   1.273       .  A
O40        Co325   2.023       .  S
O41          C47   1.264   1_565  A
O41         Co58   1.883       .  S
O42          C48   1.259       .  A
O42         Co57   1.959       .  S
O43          C46   1.280       .  A
O43         Co60   2.030       .  S
O44          C45   1.267   1_455  A
O44        Co324   2.015   1_544  S
C45         C139   1.489       .  S
C46         C170   1.489       .  S
C47         C110   1.492       .  S
C48         C199   1.484       .  S
O49          C62   1.276       .  A
O49         Co57   2.041       .  S
O50          C63   1.294       .  A
O50         Co58   2.099   1_455  S
O51          C64   1.272       .  A
O51        Co324   1.985   1_554  S
O52          C65   1.256       .  A
O52         Co60   1.964       .  S
O53          C65   1.265       .  A
O53         Co58   2.009       .  S
O54          C64   1.277       .  A
O54         Co57   2.016   1_455  S
O55          C62   1.258       .  A
O55        Co325   1.953       .  S
O56          C63   1.270   1_545  A
O56         Co59   1.898   1_545  S
Co57        O326   2.019       .  S
Co58         O61   1.980       .  S
Co59        O309   2.016   1_565  S
Co59        O316   1.978       .  S
Co59         O61   2.021   1_455  S
Co60        O305   2.034       .  S
Co60        O320   1.960       .  S
Co60         O61   2.034       .  S
O61        Co322   2.007       .  S
C62          C90   1.480       .  S
C63         C219   1.480       .  S
C64         C230   1.489       .  S
C65          C79   1.480       .  S
C66          C67   1.402   1_655  A
C66          C71   1.394       .  A
C66          H76   1.084       .  S
C67          C68   1.401       .  A
C67          C72   1.469       .  S
C68          C69   1.397       .  A
C68          F73   1.358       .  S
C69          C70   1.408       .  A
C69          H74   1.084       .  S
C70          C71   1.405   1_455  A
C71          F75   1.357       .  S
C72          C77   1.405   1_455  A
C72          C81   1.396       .  A
C77          C78   1.399       .  A
C77          F82   1.358       .  S
C78          C79   1.406       .  A
C78          H83   1.083       .  S
C79          C80   1.413   1_655  A
C80          C81   1.392       .  A
C80          F84   1.357       .  S
C81          H85   1.084       .  S
C86          C87   1.407       .  A
C86          C91   1.402       .  A
C86          H96   1.083       .  S
C87          C88   1.406   1_655  A
C87          C92   1.486       .  S
C88          C89   1.397       .  A
C88          F93   1.358       .  S
C89          C90   1.407   1_455  A
C89          H94   1.084       .  S
C90          C91   1.405       .  A
C91          F95   1.357       .  S
C92          C97   1.407   1_655  A
C92         C101   1.407       .  A
C97          C98   1.397       .  A
C97         F102   1.357       .  S
C98          C99   1.404       .  A
C98         H103   1.084       .  S
C99         C100   1.405   1_455  A
C100        C101   1.402       .  A
C100        F104   1.357       .  S
C101        H105   1.083       .  S
C106        C107   1.407   1_455  A
C106        C111   1.407   1_455  A
C106        H116   1.083       .  S
C107        C108   1.405       .  A
C107        C112   1.492       .  S
C108        C109   1.400       .  A
C108        F113   1.358       .  S
C109        C110   1.408       .  A
C109        H114   1.083       .  S
C110        C111   1.410       .  A
C111        F115   1.357   1_655  S
C112        C117   1.409       .  A
C112        C121   1.406   1_655  A
C117        C118   1.404       .  A
C117        F122   1.357       .  S
C118        C119   1.404       .  A
C118        H123   1.083       .  S
C119        C120   1.406   1_655  A
C120        C121   1.403       .  A
C120        F124   1.357       .  S
C121        H125   1.083       .  S
C126        C127   1.407       .  A
C126        C131   1.399       .  A
C126        H136   1.083       .  S
C127        C128   1.410   1_455  A
C127        C132   1.493   1_455  S
C128        C129   1.403       .  A
C128        F133   1.357       .  S
C129        C130   1.406   1_655  A
C129        H134   1.083       .  S
C130        C131   1.406       .  A
C131        F135   1.357       .  S
C132        C137   1.409   1_655  A
C132        C141   1.405       .  A
C137        C138   1.402       .  A
C137        F142   1.357       .  S
C138        C139   1.406   1_455  A
C138        H143   1.083       .  S
C139        C140   1.412       .  A
C140        C141   1.399       .  A
C140        F144   1.358       .  S
C141        H145   1.083       .  S
C146        C147   1.402       .  A
C146        C151   1.400       .  A
C146        H156   1.083       .  S
C147        C148   1.406   1_455  A
C147        C152   1.484       .  S
C148        C149   1.403       .  A
C148        F153   1.357       .  S
C149        C150   1.407   1_655  A
C149        H154   1.083       .  S
C150        C151   1.412       .  A
C151        F155   1.357       .  S
C152        C157   1.405       .  A
C152        C161   1.404   1_455  A
C157        C158   1.401       .  A
C157        F162   1.358       .  S
C158        C159   1.406       .  A
C158        H163   1.083       .  S
C159        C160   1.408   1_455  A
C160        C161   1.403       .  A
C160        F164   1.357       .  S
C161        H165   1.083       .  S
C166        C167   1.403       .  A
C166        C171   1.402       .  A
C166        H176   1.083   1_565  S
C167        C168   1.405       .  A
C167        C172   1.484       .  S
C168        C169   1.398       .  A
C168        F173   1.358       .  S
C169        C170   1.407       .  A
C169        H174   1.083       .  S
C170        C171   1.413       .  A
C171        F175   1.357   1_565  S
C172        C177   1.406       .  A
C172        C181   1.402       .  A
C177        C178   1.404       .  A
C177        F182   1.357       .  S
C178        C179   1.409       .  A
C178        H183   1.083       .  S
C179        C180   1.410       .  A
C180        C181   1.395       .  A
C180        F184   1.357       .  S
C181        H185   1.084       .  S
C186        C187   1.403       .  A
C186        C191   1.399       .  A
C186        H196   1.083       .  S
C187        C188   1.405       .  A
C187        C192   1.479       .  S
C188        C189   1.397       .  A
C188        F193   1.358       .  S
C189        C190   1.407       .  A
C189        H194   1.083       .  S
C190        C191   1.410       .  A
C191        F195   1.357       .  S
C192        C197   1.405       .  A
C192        C201   1.401       .  A
C197        C198   1.399       .  A
C197        F202   1.357       .  S
C198        C199   1.407       .  A
C198        H203   1.083       .  S
C199        C200   1.412       .  A
C200        C201   1.396       .  A
C200        F204   1.358   1_565  S
C201        H205   1.084       .  S
C206        C207   1.402       .  A
C206        C211   1.401       .  A
C206        H216   1.083       .  S
C207        C208   1.401       .  A
C207        C212   1.469       .  S
C208        C209   1.393       .  A
C208        F213   1.358   1_565  S
C209        C210   1.404       .  A
C209        H214   1.083       .  S
C210        C211   1.408       .  A
C211        F215   1.357       .  S
C212        C217   1.399       .  A
C212        C221   1.402       .  A
C217        C218   1.392       .  A
C217        F222   1.358       .  S
C218        C219   1.409       .  A
C218        H223   1.079       .  S
C219        C220   1.408       .  A
C220        C221   1.400       .  A
C220        F224   1.357   1_565  S
C221        H225   1.083   1_565  S
C226        C227   1.405       .  A
C226        C231   1.406       .  A
C226        H236   1.083       .  S
C227        C228   1.404       .  A
C227        C232   1.484       .  S
C228        C229   1.395       .  A
C228        F233   1.358       .  S
C229        C230   1.407       .  A
C229        H234   1.083       .  S
C230        C231   1.412       .  A
C231        F235   1.357       .  S
C232        C237   1.406       .  A
C232        C241   1.405       .  A
C237        C238   1.397       .  A
C237        F242   1.357       .  S
C238        C239   1.405       .  A
C238        H243   1.083       .  S
C239        C240   1.408       .  A
C240        C241   1.404       .  A
C240        F244   1.357       .  S
C241        H245   1.083       .  S
C246        C247   1.406       .  A
C246        C251   1.400       .  A
C246        H256   1.083       .  S
C247        C248   1.408       .  A
C247        C252   1.484       .  S
C248        C249   1.398       .  A
C248        F253   1.358       .  S
C249        C250   1.403       .  A
C249        H254   1.083       .  S
C250        C251   1.405       .  A
C251        F255   1.357       .  S
C252        C257   1.408       .  A
C252        C261   1.405       .  A
C257        C258   1.400       .  A
C257        F262   1.357       .  S
C258        C259   1.403       .  A
C258        H263   1.083       .  S
C259        C260   1.406       .  A
C260        C261   1.398       .  A
C260        F264   1.358       .  S
C261        H265   1.083       .  S
C266        C267   1.407       .  A
C266        C271   1.407       .  A
C266        C515   1.480       .  S
C267        C268   1.402       .  A
C267        H272   1.084       .  S
C268        C269   1.400       .  A
C268        C475   1.473       .  S
C269        C270   1.400       .  A
C269        H273   1.085       .  S
C270        C271   1.403       .  A
C270        C504   1.480       .  S
C271        H274   1.084       .  S
C275        C276   1.407       .  A
C275        C280   1.405       .  A
C275        C524   1.484       .  S
C276        C277   1.405       .  A
C276        H281   1.084       .  S
C277        C278   1.405       .  A
C277        C444   1.489       .  S
C278        C279   1.407       .  A
C278        H282   1.083       .  S
C279        C280   1.406       .  A
C279        C455   1.492       .  S
C280        H283   1.083       .  S
C284        C285   1.403       .  A
C284        C289   1.409       .  A
C284        C424   1.482       .  S
C285        C286   1.400       .  A
C285        H290   1.084       .  S
C286        C287   1.404       .  A
C286        C395   1.481       .  S
C287        C288   1.407       .  A
C287        H291   1.083       .  S
C288        C289   1.409       .  A
C288        C384   1.492       .  S
C289        H292   1.083       .  S
C293        C294   1.408       .  A
C293        C298   1.410       .  A
C293        C415   1.481       .  S
C294        C295   1.400       .  A
C294        H299   1.084       .  S
C295        C296   1.397       .  A
C295        C335   1.475       .  S
C296        C297   1.397       .  A
C296        H300   1.085   1_655  S
C297        C298   1.406       .  A
C297        C364   1.479       .  S
C298        H301   1.084       .  S
O302        C310   1.256       .  A
O302       Co322   1.963   1_545  S
O303        C311   1.266       .  A
O303       Co323   1.964       .  S
O304        C312   1.300       .  A
O304       Co324   2.123   1_645  S
O305        C313   1.275       .  A
O306        C312   1.264       .  A
O306       Co323   1.886   1_545  S
O307        C313   1.257       .  A
O307       Co322   1.953       .  S
O308        C311   1.281       .  A
O308       Co325   2.035   1_556  S
O309        C310   1.267   1_455  A
C310        C404   1.483       .  S
C311        C435   1.489       .  S
C312        C375   1.485       .  S
C313        C464   1.486       .  S
O314        C327   1.275       .  A
O314       Co322   2.031       .  S
O315        C328   1.294       .  A
O315       Co323   2.100   1_455  S
O316        C329   1.270       .  A
O317        C330   1.252       .  A
O317       Co325   1.959   1_556  S
O318        C330   1.264       .  A
O318       Co323   2.017       .  S
O319        C329   1.277       .  A
O319       Co322   2.015   1_455  S
O320        C327   1.261       .  A
O321        C328   1.269   1_545  A
O321       Co324   1.896   1_545  S
Co323       O326   1.994   1_556  S
Co324       O326   2.014   1_456  S
Co325       O326   2.024       .  S
C327        C355   1.482       .  S
C328        C484   1.481       .  S
C329        C495   1.482       .  S
C330        C344   1.481       .  S
C331        C332   1.402       .  A
C331        C336   1.398       .  A
C331        H341   1.083       .  S
C332        C333   1.401   1_655  A
C332        C337   1.468       .  S
C333        C334   1.394       .  A
C333        F338   1.358       .  S
C334        C335   1.405   1_455  A
C334        H339   1.084       .  S
C335        C336   1.406       .  A
C336        F340   1.357       .  S
C337        C342   1.404       .  A
C337        C346   1.395       .  A
C342        C343   1.398       .  A
C342        F347   1.358       .  S
C343        C344   1.404       .  A
C343        H348   1.083       .  S
C344        C345   1.415       .  A
C345        C346   1.395       .  A
C345        F349   1.358       .  S
C346        H350   1.084   1_655  S
C351        C352   1.401       .  A
C351        C356   1.398       .  A
C351        H361   1.084       .  S
C352        C353   1.401   1_655  A
C352        C357   1.472       .  S
C353        C354   1.398   1_455  A
C353        F358   1.358       .  S
C354        C355   1.410       .  A
C354        H359   1.083   1_655  S
C355        C356   1.408       .  A
C356        F360   1.357       .  S
C357        C362   1.401   1_655  A
C357        C366   1.403       .  A
C362        C363   1.397       .  A
C362        F367   1.357       .  S
C363        C364   1.408   1_455  A
C363        H368   1.084       .  S
C364        C365   1.404       .  A
C365        C366   1.399       .  A
C365        F369   1.357       .  S
C366        H370   1.083       .  S
C371        C372   1.404       .  A
C371        C376   1.404       .  A
C371        H381   1.083   1_655  S
C372        C373   1.403       .  A
C372        C377   1.481       .  S
C373        C374   1.399       .  A
C373        F378   1.358       .  S
C374        C375   1.408       .  A
C374        H379   1.083       .  S
C375        C376   1.408       .  A
C376        F380   1.357   1_655  S
C377        C382   1.405       .  A
C377        C386   1.401   1_655  A
C382        C383   1.404       .  A
C382        F387   1.357       .  S
C383        C384   1.409       .  A
C383        H388   1.083       .  S
C384        C385   1.410   1_655  A
C385        C386   1.398       .  A
C385        F389   1.358       .  S
C386        H390   1.084       .  S
C391        C392   1.405   1_455  A
C391        C396   1.397       .  A
C391        H401   1.083       .  S
C392        C393   1.409       .  A
C392        C397   1.486       .  S
C393        C394   1.399       .  A
C393        F398   1.358       .  S
C394        C395   1.404       .  A
C394        H399   1.083       .  S
C395        C396   1.405   1_655  A
C396        F400   1.357       .  S
C397        C402   1.409   1_655  A
C397        C406   1.402       .  A
C402        C403   1.401       .  A
C402        F407   1.357       .  S
C403        C404   1.405   1_455  A
C403        H408   1.083       .  S
C404        C405   1.412       .  A
C405        C406   1.394       .  A
C405        F409   1.358       .  S
C406        H410   1.083       .  S
C411        C412   1.401   1_455  A
C411        C416   1.396       .  A
C411        H421   1.084       .  S
C412        C413   1.406       .  A
C412        C417   1.477       .  S
C413        C414   1.402       .  A
C413        F418   1.357       .  S
C414        C415   1.406       .  A
C414        H419   1.083       .  S
C415        C416   1.407   1_655  A
C416        F420   1.357       .  S
C417        C422   1.404   1_655  A
C417        C426   1.404       .  A
C422        C423   1.397       .  A
C422        F427   1.358       .  S
C423        C424   1.405   1_455  A
C423        H428   1.083       .  S
C424        C425   1.407       .  A
C425        C426   1.402       .  A
C425        F429   1.357       .  S
C426        H430   1.083       .  S
C431        C432   1.405       .  A
C431        C436   1.401       .  A
C431        H441   1.083   1_565  S
C432        C433   1.407       .  A
C432        C437   1.489       .  S
C433        C434   1.399       .  A
C433        F438   1.357       .  S
C434        C435   1.406       .  A
C434        H439   1.083       .  S
C435        C436   1.412       .  A
C436        F440   1.358   1_565  S
C437        C442   1.408       .  A
C437        C446   1.406       .  A
C442        C443   1.402       .  A
C442        F447   1.357       .  S
C443        C444   1.406       .  A
C443        H448   1.083       .  S
C444        C445   1.409       .  A
C445        C446   1.398       .  A
C445        F449   1.358       .  S
C446        H450   1.083       .  S
C451        C452   1.405       .  A
C451        C456   1.399       .  A
C451        H461   1.083       .  S
C452        C453   1.407       .  A
C452        C457   1.487       .  S
C453        C454   1.397       .  A
C453        F458   1.357       .  S
C454        C455   1.408       .  A
C454        H459   1.083       .  S
C455        C456   1.411       .  A
C456        F460   1.357       .  S
C457        C462   1.408       .  A
C457        C466   1.402       .  A
C462        C463   1.402       .  A
C462        F467   1.357       .  S
C463        C464   1.406       .  A
C463        H468   1.083       .  S
C464        C465   1.412       .  A
C465        C466   1.395       .  A
C465        F469   1.358   1_565  S
C466        H470   1.083       .  S
C471        C472   1.407       .  A
C471        C476   1.403       .  A
C471        H481   1.083       .  S
C472        C473   1.405       .  A
C472        C477   1.480       .  S
C473        C474   1.393       .  A
C473        F478   1.357   1_565  S
C474        C475   1.400       .  A
C474        H479   1.084   1_565  S
C475        C476   1.405       .  A
C476        F480   1.357       .  S
C477        C482   1.405       .  A
C477        C486   1.404   1_565  A
C482        C483   1.399       .  A
C482        F487   1.358       .  S
C483        C484   1.408       .  A
C483        H488   1.083       .  S
C484        C485   1.407   1_565  A
C485        C486   1.397       .  A
C485        F489   1.357       .  S
C486        H490   1.083       .  S
C491        C492   1.405       .  A
C491        C496   1.402       .  A
C491        H501   1.083       .  S
C492        C493   1.406       .  A
C492        C497   1.482       .  S
C493        C494   1.395       .  A
C493        F498   1.358       .  S
C494        C495   1.405       .  A
C494        H499   1.083       .  S
C495        C496   1.408       .  A
C496        F500   1.357       .  S
C497        C502   1.406       .  A
C497        C506   1.405       .  A
C502        C503   1.397       .  A
C502        F507   1.357       .  S
C503        C504   1.404       .  A
C503        H508   1.083       .  S
C504        C505   1.406       .  A
C505        C506   1.400       .  A
C505        F509   1.358       .  S
C506        H510   1.083       .  S
C511        C512   1.402       .  A
C511        C516   1.397       .  A
C511        H521   1.083       .  S
C512        C513   1.404       .  A
C512        C517   1.475       .  S
C513        C514   1.401       .  A
C513        F518   1.357   1_565  S
C514        C515   1.406       .  A
C514        H519   1.083   1_565  S
C515        C516   1.406       .  A
C516        F520   1.357       .  S
C517        C522   1.402       .  A
C517        C526   1.402       .  A
C522        C523   1.396       .  A
C522        F527   1.357       .  S
C523        C524   1.404       .  A
C523        H528   1.083       .  S
C524        C525   1.411       .  A
C525        C526   1.402       .  A
C525        F529   1.358   1_565  S
C526        H530   1.083   1_565  S
