geometry optimzed in LAMMPS
_audit_creation_date              2020-11-30 
_audit_creation_method            'lammps2cif' 
_symmetry_space_group_name_H-M    'P1' 
_symmetry_Int_Tables_number       1 
_symmetry_cell_setting            triclinic 
loop_ 
_symmetry_equiv_pos_as_xyz 
  x,y,z 
_cell_length_a                    28.69012201 
_cell_length_b                    28.6872361090009 
_cell_length_c                    33.67985202423619 
_cell_angle_alpha                 90.00090801529915 
_cell_angle_beta                  89.9995109252962 
_cell_angle_gamma                 120.26994555374499 
loop_ 
_atom_site_label 
_atom_site_type_symbol 
_atom_site_fract_x 
_atom_site_fract_y 
_atom_site_fract_z 
_atom_site_charge 
C1          C  0.15875027  0.05506249  0.35127084     0.03300
C2          C  0.15840065  0.10371243  0.35134407     0.03200
C3          C  0.17506793  0.13572588  0.38532746    -0.17300
C4          C  0.18486319  0.11794416  0.42208885     0.03300
C5          C  0.18509971  0.06748354  0.42205402     0.03200
C6          C  0.17561290  0.03998956  0.38523773    -0.17300
H7          H  0.17587252  0.50240788  0.38318501     0.05300
H8          H  0.17496016  0.17337944  0.38330911     0.05300
C9          C  0.15877013  0.05508153  0.14967230     0.03300
C10         C  0.15842255  0.10373308  0.14959970     0.03200
C11         C  0.17509170  0.13574665  0.11561598    -0.17300
C12         C  0.18488559  0.11796387  0.07885361     0.03300
C13         C  0.18511939  0.06750236  0.07888744     0.03200
C14         C  0.17563146  0.04000784  0.11570357    -0.17300
H15         H  0.17588877  0.50242512  0.11775438     0.05300
H16         H  0.17498504  0.17340093  0.11763417     0.05300
N17         N  0.04505231  0.42535891  0.18971638    -0.35600
N18         N  0.47429007  0.35525964  0.25046586    -0.56200
N19         N  0.04503525  0.42534541  0.31121929    -0.35600
N20         N  0.11508677  0.49616148  0.25046969    -0.56200
C21         C  0.50012942  0.39439761  0.16826614     0.27900
C22         C  0.07600095  0.47029481  0.16826956     0.27900
C23         C  0.50010877  0.39438374  0.33266685     0.27900
C24         C  0.07598392  0.47027806  0.33266937     0.27900
C25         C  0.45396737  0.32315100  0.21836665     0.36600
C26         C  0.45395480  0.32314497  0.28256079     0.36600
C27         C  0.14722820  0.01643716  0.21837591     0.36600
C28         C  0.14722069  0.01642695  0.28256766     0.36600
C29         C  0.00356981  0.41904499  0.13212253    -0.20900
C30         C  0.05135923  0.46685444  0.13212607    -0.20900
C31         C  0.00354675  0.41902823  0.36881176    -0.20900
C32         C  0.05133956  0.46683474  0.36881270    -0.20900
C33         C  0.42183061  0.27018242  0.22997993    -0.22000
C34         C  0.42182318  0.27017827  0.27094052    -0.22000
C35         C  0.20020619  0.04845695  0.22999451    -0.22000
C36         C  0.20020123  0.04845084  0.27095597    -0.22000
C37         C  0.45802920  0.34296829  0.17958892    -0.17300
C38         C  0.12743520  0.01240571  0.17959568    -0.17300
C39         C  0.12741994  0.01238883  0.32134612    -0.17300
C40         C  0.45800766  0.34295611  0.32134029    -0.17300
H41         H  0.47602463  0.40348134  0.10736290     0.15600
H42         H  0.06691588  0.49441180  0.10737145     0.15600
H43         H  0.47599736  0.40346447  0.39356914     0.15600
H44         H  0.06689645  0.49438790  0.39357010     0.15600
H45         H  0.39684627  0.23653390  0.21086095     0.13900
H46         H  0.39683347  0.23652524  0.29005370     0.13900
H47         H  0.23388304  0.07335640  0.21087655     0.13900
H48         H  0.23387314  0.07334582  0.29007946     0.13900
H49         H  0.05658227  0.41383181  0.21545330     0.27100
H50         H  0.05656915  0.41382241  0.28548194     0.27100
C51         C  0.41535432  0.31166140  0.14966515     0.03300
C52         C  0.36675055  0.31209117  0.14958284     0.03200
C53         C  0.33475543  0.29546068  0.11559199    -0.17300
C54         C  0.35251752  0.28562256  0.07883480     0.03300
C55         C  0.40295340  0.28534540  0.07887399     0.03200
C56         C  0.43041014  0.29477526  0.11569975    -0.17300
H57         H  0.46794778  0.29444982  0.11776349     0.05300
H58         H  0.29713268  0.29562251  0.11760442     0.05300
C59         C  0.41532957  0.31164358  0.35126265     0.03300
C60         C  0.36672215  0.31206750  0.35134518     0.03200
C61         C  0.33472683  0.29543550  0.38533766    -0.17300
C62         C  0.35249041  0.28559959  0.42209523     0.03300
C63         C  0.40292682  0.28532342  0.42205393     0.03200
C64         C  0.43038542  0.29475752  0.38522796    -0.17300
H65         H  0.46792457  0.29443525  0.38316426     0.05300
H66         H  0.29710337  0.29559594  0.38332713     0.05300
C67         C  0.41585382  0.10376538  0.14969742     0.03300
C68         C  0.36683598  0.05472808  0.14970061     0.03200
C69         C  0.33468715  0.03944890  0.11579471    -0.17300
C70         C  0.35253773  0.06723815  0.07907448     0.03300
C71         C  0.40329950  0.11800712  0.07906686     0.03200
C72         C  0.43110197  0.13589355  0.11578141    -0.17300
H73         H  0.46895271  0.17376728  0.11778720     0.05300
H74         H  0.29681444  0.50160598  0.11781216     0.05300
C75         C  0.36680820  0.05470447  0.35123591     0.03300
C76         C  0.41582975  0.10373799  0.35123949     0.03200
C77         C  0.43107994  0.13586551  0.38515573    -0.17300
C78         C  0.40327643  0.11798092  0.42186987     0.03300
C79         C  0.35251346  0.06721408  0.42186336     0.03200
C80         C  0.33465925  0.03942693  0.38514233    -0.17300
H81         H  0.29678481  0.50158580  0.38312503     0.05300
H82         H  0.46893232  0.17373742  0.38314997     0.05300
N83         N  0.04505512  0.11943087  0.18970072    -0.35600
N84         N  0.47460657  0.11883430  0.25046939    -0.56200
N85         N  0.04503254  0.11940136  0.31123829    -0.35600
N86         N  0.11460980  0.11828503  0.25047118    -0.56200
C87         C  0.00029274  0.10565475  0.16820079     0.27900
C88         C  0.07576851  0.10543037  0.16820838     0.27900
C89         C  0.00026601  0.10561938  0.33273522     0.27900
C90         C  0.07574459  0.10540044  0.33273061     0.27900
C91         C  0.45452444  0.13075411  0.21837930     0.36600
C92         C  0.45451276  0.13073945  0.28256078     0.36600
C93         C  0.14674137  0.13033178  0.21838556     0.36600
C94         C  0.14673218  0.13032297  0.28256112     0.36600
C95         C  0.00363155  0.08459424  0.13197469    -0.20900
C96         C  0.05115009  0.08441287  0.13199013    -0.20900
C97         C  0.00359996  0.08455284  0.36895921    -0.20900
C98         C  0.05112096  0.08437613  0.36894604    -0.20900
C99         C  0.42277308  0.15175966  0.22999522    -0.22000
C100        C  0.42276669  0.15175162  0.27094748    -0.22000
C101        C  0.19967804  0.15151955  0.23000251    -0.22000
C102        C  0.19967211  0.15151430  0.27095168    -0.22000
C103        C  0.45844979  0.11501747  0.17958060    -0.17300
C104        C  0.12701110  0.11467272  0.17957026    -0.17300
C105        C  0.12699184  0.11465203  0.32137274    -0.17300
C106        C  0.45842646  0.11498743  0.32135651    -0.17300
H107        H  0.47622023  0.07283198  0.10715598     0.15600
H108        H  0.06655717  0.07244718  0.10719504     0.15600
H109        H  0.47618571  0.07278758  0.39377643     0.15600
H110        H  0.06652790  0.07241300  0.39374191     0.15600
H111        H  0.39808472  0.16060179  0.21086712     0.13900
H112        H  0.39807404  0.16058867  0.29007603     0.13900
H113        H  0.23329582  0.16043308  0.21087397     0.13900
H114        H  0.23328420  0.16042295  0.29008509     0.13900
H115        H  0.05668668  0.14241907  0.21551173     0.27100
H116        H  0.05666988  0.14239692  0.28543145     0.27100
N117        N  0.35118526  0.42554236  0.18970438    -0.35600
N118        N  0.35230207  0.35595421  0.25046508    -0.56200
N119        N  0.35115192  0.42551803  0.31122869    -0.35600
N120        N  0.35175386  0.49598000  0.25046687    -0.56200
C121        C  0.36515375  0.39480833  0.16820503     0.27900
C122        C  0.36497057  0.47031251  0.16820770     0.27900
C123        C  0.36511760  0.39478210  0.33272809     0.27900
C124        C  0.36493391  0.47028565  0.33272819     0.27900
C125        C  0.34017903  0.32381497  0.21837360     0.36600
C126        C  0.34016679  0.32380421  0.28255090     0.36600
C127        C  0.33987448  0.01607261  0.21837839     0.36600
C128        C  0.33985928  0.01606054  0.28255534     0.36600
C129        C  0.38616906  0.41942590  0.13198660    -0.20900
C130        C  0.38601801  0.46696525  0.13197877    -0.20900
C131        C  0.38612721  0.41939577  0.36894876    -0.20900
C132        C  0.38597491  0.46693420  0.36895867    -0.20900
C133        C  0.31885116  0.27085295  0.22998190    -0.22000
C134        C  0.31884419  0.27084627  0.27093281    -0.22000
C135        C  0.31886656  0.04782581  0.22999114    -0.22000
C136        C  0.31885807  0.04781910  0.27094218    -0.22000
C137        C  0.35585740  0.34353915  0.17955792    -0.17300
C138        C  0.35561801  0.01214820  0.17958537    -0.17300
C139        C  0.35558782  0.01212511  0.32135039    -0.17300
C140        C  0.35582869  0.34351670  0.32137129    -0.17300
H141        H  0.39809743  0.40399914  0.10718249     0.15600
H142        H  0.39777567  0.49437728  0.10715905     0.15600
H143        H  0.39805695  0.40396899  0.39375163     0.15600
H144        H  0.39773116  0.49434472  0.39377986     0.15600
H145        H  0.30982588  0.23721207  0.21084296     0.13900
H146        H  0.30981346  0.23719932  0.29006568     0.13900
H147        H  0.31002930  0.07252331  0.21086527     0.13900
H148        H  0.31001501  0.07251175  0.29006906     0.13900
H149        H  0.32819316  0.41390953  0.21551223     0.27100
H150        H  0.32816704  0.41389092  0.28541725     0.27100
C151        C  0.09341914  0.16871357  0.85134235     0.03300
C152        C  0.04480199  0.16911890  0.85126357     0.03200
C153        C  0.02974692  0.18599900  0.88523237    -0.17300
C154        C  0.05721954  0.19544754  0.92205380     0.03300
C155        C  0.10765819  0.19517755  0.92209050     0.03200
C156        C  0.12542306  0.18535608  0.88533007    -0.17300
H157        H  0.16305439  0.18521134  0.88331445     0.05300
H158        H  0.49220256  0.18631198  0.88317435     0.05300
C159        C  0.04441266  0.37710646  0.85123598     0.03300
C160        C  0.09345638  0.42611848  0.85123282     0.03200
C161        C  0.12559167  0.44137135  0.88514623    -0.17300
C162        C  0.10770745  0.41358285  0.92186659     0.03300
C163        C  0.05692976  0.36282935  0.92186592     0.03200
C164        C  0.02913543  0.34496836  0.88514783    -0.17300
H165        H  0.49126880  0.30711156  0.88313579     0.05300
H166        H  0.16346843  0.47921826  0.88313549     0.05300
C167        C  0.30181401  0.37708748  0.85135300     0.03300
C168        C  0.30139515  0.42570168  0.85127277     0.03200
C169        C  0.28451100  0.44075632  0.88523861    -0.17300
C170        C  0.27506486  0.41328256  0.92205954     0.03300
C171        C  0.27532866  0.36283557  0.92209463     0.03200
C172        C  0.28516986  0.34507799  0.88533768    -0.17300
H173        H  0.28532246  0.30744700  0.88332165     0.05300
H174        H  0.28419508  0.47830281  0.88317910     0.05300
C175        C  0.09341918  0.42610252  0.64969464     0.03300
C176        C  0.04437862  0.37708856  0.64969040     0.03200
C177        C  0.02910309  0.34495079  0.61577841    -0.17300
C178        C  0.05689803  0.36281326  0.57906110     0.03300
C179        C  0.10767456  0.41356765  0.57906233     0.03200
C180        C  0.12555470  0.44135814  0.61578233    -0.17300
H181        H  0.16342965  0.47920665  0.61779486     0.05300
H182        H  0.49123826  0.30709226  0.61779041     0.05300
N183        N  0.10904757  0.05530293  0.68970432    -0.35600
N184        N  0.10788610  0.12486439  0.75046588    -0.56200
N185        N  0.10909092  0.05532443  0.81122814    -0.35600
N186        N  0.10852235  0.48487563  0.75046441    -0.56200
C187        C  0.09503408  0.08600756  0.66821235     0.27900
C188        C  0.09529277  0.01054181  0.66820407     0.27900
C189        C  0.09508252  0.08603181  0.83272321     0.27900
C190        C  0.09534317  0.01056658  0.83273007     0.27900
C191        C  0.11997000  0.15699861  0.71837727     0.36600
C192        C  0.11998637  0.15700737  0.78255140     0.36600
C193        C  0.12041948  0.46477829  0.71837158     0.36600
C194        C  0.12043712  0.46478629  0.78255237     0.36600
C195        C  0.07401914  0.06138127  0.63199625    -0.20900
C196        C  0.07422599  0.01387074  0.63197918    -0.20900
C197        C  0.07408001  0.06141148  0.86894286    -0.20900
C198        C  0.07428829  0.01390173  0.86895904    -0.20900
C199        C  0.14124149  0.20995426  0.72998658    -0.22000
C200        C  0.14125083  0.20995978  0.77093649    -0.22000
C201        C  0.14142004  0.43301876  0.72998154    -0.22000
C202        C  0.14142996  0.43302285  0.77093378    -0.22000
C203        C  0.10429388  0.13726373  0.67956576    -0.17300
C204        C  0.10466460  0.46869634  0.67957879    -0.17300
C205        C  0.10470336  0.46871434  0.82135032    -0.17300
C206        C  0.10432946  0.13728248  0.82136691    -0.17300
H207        H  0.06205332  0.07678540  0.60719991     0.15600
H208        H  0.06248673  0.98646422  0.60715679     0.15600
H209        H  0.06211574  0.07681623  0.89374040     0.15600
H210        H  0.06255160  0.98649660  0.89378172     0.15600
H211        H  0.15021795  0.24358610  0.71085158     0.13900
H212        H  0.15023485  0.24359660  0.79006856     0.13900
H213        H  0.15024423  0.40831533  0.71085199     0.13900
H214        H  0.15026159  0.40832167  0.79005875     0.13900
H215        H  0.13204513  0.06695063  0.71550946     0.27100
H216        H  0.13207555  0.06696586  0.78541664     0.27100
C217        C  0.04477120  0.16910358  0.64966731     0.03300
C218        C  0.09338612  0.16869467  0.64958988     0.03200
C219        C  0.12539103  0.18533418  0.61560341    -0.17300
C220        C  0.10763022  0.19515928  0.57884336     0.03300
C221        C  0.05719259  0.19543236  0.57887863     0.03200
C222        C  0.02971880  0.18598532  0.61569917    -0.17300
H223        H  0.49217583  0.18630117  0.61775720     0.05300
H224        H  0.16302061  0.18518632  0.61762029     0.05300
C225        C  0.30177659  0.37706542  0.64959725     0.03300
C226        C  0.30136101  0.42568230  0.64967672     0.03200
C227        C  0.28447612  0.44073503  0.61570957    -0.17300
C228        C  0.27503167  0.41326088  0.57888775     0.03300
C229        C  0.27529535  0.36281418  0.57885247     0.03200
C230        C  0.28513091  0.34505481  0.61561091    -0.17300
H231        H  0.28528190  0.30742296  0.61762544     0.05300
H232        H  0.28416151  0.47828234  0.61776767     0.05300
N233        N  0.41504828  0.05542631  0.68971451    -0.35600
N234        N  0.34499215  0.48464298  0.75047247    -0.56200
N235        N  0.41507590  0.05543459  0.81122418    -0.35600
N236        N  0.48584539  0.12549118  0.75046737    -0.56200
C237        C  0.38409058  0.01049327  0.66826702     0.27900
C238        C  0.45998012  0.08637281  0.66826680     0.27900
C239        C  0.38412200  0.01050451  0.83267372     0.27900
C240        C  0.46001364  0.08638106  0.83266674     0.27900
C241        C  0.31287413  0.46432024  0.71837882     0.36600
C242        C  0.31288688  0.46432919  0.78257280     0.36600
C243        C  0.00614493  0.15760606  0.71836950     0.36600
C244        C  0.00616070  0.15761040  0.78256272     0.36600
C245        C  0.40873334  0.01392760  0.63212382    -0.20900
C246        C  0.45653684  0.06172193  0.63212455    -0.20900
C247        C  0.40877279  0.01394055  0.86881334    -0.20900
C248        C  0.45657896  0.06173194  0.86880734    -0.20900
C249        C  0.25991102  0.43220749  0.73000113    -0.22000
C250        C  0.25991920  0.43221320  0.77096184    -0.22000
C251        C  0.03824128  0.21057990  0.72998372    -0.22000
C252        C  0.03825038  0.21058289  0.77094469    -0.22000
C253        C  0.33267512  0.46836888  0.67959745    -0.17300
C254        C  0.00209210  0.13779450  0.67959111    -0.17300
C255        C  0.00212135  0.13780316  0.82134065    -0.17300
C256        C  0.33270193  0.46838304  0.82134971    -0.17300
H257        H  0.39317470  0.98636994  0.60736920     0.15600
H258        H  0.48409389  0.07727173  0.60737076     0.15600
H259        H  0.39321627  0.98638769  0.89357034     0.15600
H260        H  0.48414250  0.07728260  0.89355749     0.15600
H261        H  0.22625465  0.40723415  0.71088784     0.13900
H262        H  0.22627099  0.40724484  0.79008302     0.13900
H263        H  0.06319274  0.24423741  0.71086361     0.13900
H264        H  0.06320870  0.24424367  0.79006092     0.13900
H265        H  0.40352695  0.06695932  0.71545319     0.27100
H266        H  0.40354566  0.06696548  0.78548934     0.27100
N267        N  0.41520107  0.36146234  0.68970068    -0.35600
N268        N  0.48565694  0.36206230  0.75046588    -0.56200
N269        N  0.41523178  0.36148623  0.81123674    -0.35600
N270        N  0.34566094  0.36263203  0.75047243    -0.56200
C271        C  0.45995933  0.37523492  0.66819797     0.27900
C272        C  0.38447415  0.37544080  0.66820483     0.27900
C273        C  0.45999536  0.37526287  0.83273417     0.27900
C274        C  0.38450882  0.37546593  0.83273611     0.27900
C275        C  0.00573100  0.35013655  0.71837421     0.36600
C276        C  0.00574772  0.35014885  0.78255380     0.36600
C277        C  0.31351353  0.35051160  0.71838831     0.36600
C278        C  0.31352804  0.35051797  0.78256418     0.36600
C279        C  0.45660769  0.39627731  0.63196720    -0.20900
C280        C  0.40908183  0.39644597  0.63198204    -0.20900
C281        C  0.45665220  0.39631132  0.86896497    -0.20900
C282        C  0.40912415  0.39647596  0.86895637    -0.20900
C283        C  0.03747761  0.32912358  0.72998526    -0.22000
C284        C  0.03748739  0.32913031  0.77093665    -0.22000
C285        C  0.26056379  0.32920875  0.73000770    -0.22000
C286        C  0.26057308  0.32921269  0.77095769    -0.22000
C287        C  0.00179939  0.36586777  0.67957678    -0.17300
C288        C  0.33322259  0.36616961  0.67956795    -0.17300
C289        C  0.33325296  0.36618829  0.82137967    -0.17300
C290        C  0.00183078  0.36589029  0.82135175    -0.17300
H291        H  0.48401010  0.40802657  0.60714357     0.15600
H292        H  0.39365985  0.40838604  0.60718211     0.15600
H293        H  0.48406050  0.40806477  0.89378503     0.15600
H294        H  0.39370446  0.40841330  0.89375972     0.15600
H295        H  0.06216081  0.32027543  0.71085495     0.13900
H296        H  0.06217839  0.32028663  0.79006149     0.13900
H297        H  0.22692173  0.32019458  0.71087739     0.13900
H298        H  0.22693979  0.32020249  0.79009703     0.13900
H299        H  0.40357592  0.33848003  0.71551394     0.27100
H300        H  0.40359766  0.33849797  0.78542598     0.27100
O301        O  0.21903494  0.15868677  0.01343031    -0.70800
O302        O  0.27658477  0.28676788  0.95024708    -0.71000
O303        O  0.31177778  0.25143574  0.01342252    -0.70900
O304        O  0.18369468  0.19387666  0.95025041    -0.70900
O305        O  0.14839028  0.22934080  0.98750927    -0.70900
O306        O  0.27647154  0.28690051  0.05067878    -0.70900
O307        O  0.24113658  0.32208940  0.98750459    -0.70800
O308        O  0.18358624  0.19400627  0.05068961    -0.71000
V309        V  0.24689849  0.22356462  0.98217180     1.35200
V310        V  0.21326861  0.25720947  0.01876104     1.35200
C311        C  0.19491079  0.15683984  0.04524932     0.78400
C312        C  0.26527317  0.32394219  0.95569090     0.78500
C313        C  0.31363570  0.27557862  0.04523561     0.78400
C314        C  0.14653460  0.20520565  0.95569251     0.78300
O315        O  0.48062373  0.19455509  0.05078846    -0.70800
O316        O  0.05081029  0.32230869  0.98721580    -0.71000
O317        O  0.48044026  0.28699574  0.05062189    -0.70900
O318        O  0.05100600  0.22998169  0.98736583    -0.74500
O319        O  0.47974469  0.19380246  0.95031567    -0.70900
O320        O  0.40920163  0.25085986  0.01354819    -0.70900
O321        O  0.47959422  0.28626058  0.95012406    -0.70800
O322        O  0.40938342  0.15852657  0.01372187    -0.71000
V323        V  0.01397181  0.25757596  0.01865925     1.35200
V324        V  0.44622934  0.22324797  0.98226579     1.35200
C325        C  0.43197221  0.15702641  0.04546744     0.78400
C326        C  0.02823912  0.32380053  0.95545873     0.78500
C327        C  0.43173722  0.27531563  0.04526447     0.78400
C328        C  0.02845237  0.20549532  0.95566292     0.78300
O329        O  0.18350211  0.49002925  0.05062416    -0.70800
O330        O  0.24057502  0.41951151  0.98738372    -0.71000
O331        O  0.27596359  0.48990183  0.05081547    -0.70900
O332        O  0.14823901  0.41967208  0.98721030    -0.70900
O333        O  0.18425521  0.49091983  0.95014462    -0.70900
O334        O  0.31199486  0.06112984  0.01373475    -0.70900
O335        O  0.27670050  0.49076392  0.95031754    -0.70800
O336        O  0.21966306  0.06130397  0.01357897    -0.71000
V337        V  0.21295512  0.45652703  0.01866994     1.35200
V338        V  0.24727166  0.02428414  0.98228492     1.35200
C339        C  0.19518007  0.03874175  0.04528016     0.78400
C340        C  0.26502826  0.44205793  0.95567022     0.78500
C341        C  0.31349579  0.03855087  0.04548664     0.78400
C342        C  0.14673197  0.44226184  0.95546515     0.78300
O343        O  0.14821361  0.41965348  0.51372338    -0.70800
O344        O  0.27594459  0.48987708  0.45012577    -0.71000
O345        O  0.24054796  0.41948893  0.51355981    -0.70900
O346        O  0.18348604  0.49001064  0.45031301    -0.70900
O347        O  0.21964277  0.06128401  0.48736101    -0.70900
O348        O  0.27667413  0.49074313  0.55062540    -0.70900
O349        O  0.31197343  0.06110721  0.48720553    -0.70800
O350        O  0.18422974  0.49090068  0.55079111    -0.71000
V351        V  0.21293365  0.45650577  0.48226899     1.35200
V352        V  0.24724877  0.02426341  0.51865479     1.35200
C353        C  0.14670420  0.44224429  0.54546750     0.78400
C354        C  0.31347479  0.03852716  0.45545340     0.78500
C355        C  0.26499916  0.44203593  0.54527451     0.78400
C356        C  0.19516155  0.03872246  0.45565917     0.78300
O357        O  0.05098027  0.22996537  0.51356683    -0.70800
O358        O  0.48041168  0.28696878  0.45030494    -0.71000
O359        O  0.05078101  0.32229069  0.51371164    -0.70900
O360        O  0.48059895  0.19452978  0.45014612    -0.70900
O361        O  0.40935712  0.15850495  0.48721133    -0.70900
O362        O  0.47956439  0.28624449  0.55080276    -0.70900
O363        O  0.40917354  0.25083749  0.48737918    -0.70800
O364        O  0.47971813  0.19378763  0.55061624    -0.71000
V365        V  0.01394456  0.25755444  0.48227103     1.35200
V366        V  0.44620161  0.22322920  0.51866408     1.35200
C367        C  0.02842614  0.20548022  0.54526952     0.78400
C368        C  0.43170933  0.27529111  0.45566258     0.78500
C369        C  0.02820893  0.32378412  0.54546805     0.78400
C370        C  0.43194773  0.15700166  0.45546765     0.78300
O371        O  0.18367257  0.19386331  0.55068784    -0.70800
O372        O  0.31175615  0.25142074  0.48751284    -0.71000
O373        O  0.27656286  0.28675354  0.55069406    -0.70900
O374        O  0.21901406  0.15867127  0.48751005    -0.70900
O375        O  0.18356442  0.19398853  0.45025083    -0.70900
O376        O  0.24111393  0.32207352  0.51343728    -0.70900
O377        O  0.27644853  0.28688341  0.45025757    -0.70800
O378        O  0.14836813  0.22932543  0.51342832    -0.71000
V379        V  0.24687747  0.22355060  0.51876695     1.35200
V380        V  0.21324689  0.25719365  0.48217810     1.35200
C381        C  0.14651093  0.20518995  0.54524419     0.78400
C382        C  0.31361171  0.27555983  0.45569821     0.78500
C383        C  0.26524750  0.32392525  0.54525255     0.78400
C384        C  0.19488868  0.15682207  0.45569189     0.78300
C385        C  0.15874165  0.55505166  0.35127268     0.03300
C386        C  0.15839706  0.60370415  0.35134517     0.03200
C387        C  0.17506818  0.63571991  0.38532786    -0.17300
C388        C  0.18486648  0.61794074  0.42208945     0.03300
C389        C  0.18509730  0.56747711  0.42205549     0.03200
C390        C  0.17560245  0.53997809  0.38524030    -0.17300
H391        H  0.17588852  0.00242229  0.38318135     0.05300
H392        H  0.17496276  0.67337459  0.38330882     0.05300
C393        C  0.15876134  0.55507075  0.14967046     0.03300
C394        C  0.15841893  0.60372493  0.14959868     0.03200
C395        C  0.17509226  0.63574103  0.11561570    -0.17300
C396        C  0.18488878  0.61796058  0.07885306     0.03300
C397        C  0.18511679  0.56749595  0.07888595     0.03200
C398        C  0.17562092  0.53999644  0.11570103    -0.17300
H399        H  0.17590465  0.00243930  0.11775796     0.05300
H400        H  0.17498836  0.67339658  0.11763463     0.05300
N401        N  0.04506846  0.92536401  0.18971616    -0.35600
N402        N  0.47430915  0.85526190  0.25046585    -0.56200
N403        N  0.04505143  0.92535054  0.31121956    -0.35600
N404        N  0.11510128  0.99616870  0.25046968    -0.56200
C405        C  0.50014708  0.89439995  0.16826493     0.27900
C406        C  0.07601433  0.97030193  0.16827033     0.27900
C407        C  0.50012655  0.89438601  0.33266806     0.27900
C408        C  0.07599724  0.97028522  0.33266851     0.27900
C409        C  0.45398225  0.82315382  0.21836647     0.36600
C410        C  0.45396982  0.82314783  0.28256101     0.36600
C411        C  0.14721466  0.51642504  0.21837559     0.36600
C412        C  0.14720717  0.51641491  0.28256799     0.36600
C413        C  0.00358671  0.91904750  0.13212150    -0.20900
C414        C  0.05137253  0.96686024  0.13212662    -0.20900
C415        C  0.00356367  0.91903071  0.36881282    -0.20900
C416        C  0.05135283  0.96684053  0.36881209    -0.20900
C417        C  0.42183825  0.77018660  0.22998005    -0.22000
C418        C  0.42183094  0.77018253  0.27094049    -0.22000
C419        C  0.20019340  0.54843710  0.22999441    -0.22000
C420        C  0.20018845  0.54843115  0.27095606    -0.22000
C421        C  0.45804684  0.84297032  0.17958781    -0.17300
C422        C  0.12742374  0.51239520  0.17959438    -0.17300
C423        C  0.12740858  0.51237826  0.32134747    -0.17300
C424        C  0.45802537  0.84295819  0.32134138    -0.17300
H425        H  0.47604256  0.90348266  0.10736120     0.15600
H426        H  0.06692689  0.99441938  0.10737288     0.15600
H427        H  0.47601534  0.90346590  0.39357070     0.15600
H428        H  0.06690749  0.99439548  0.39356862     0.15600
H429        H  0.39684817  0.73654004  0.21086141     0.13900
H430        H  0.39683547  0.73653147  0.29005343     0.13900
H431        H  0.23387139  0.57333081  0.21087601     0.13900
H432        H  0.23386148  0.57332053  0.29007993     0.13900
H433        H  0.05659916  0.91383831  0.21545335     0.27100
H434        H  0.05658606  0.91382897  0.28548180     0.27100
C435        C  0.41537209  0.81166257  0.14966338     0.03300
C436        C  0.36676436  0.81208466  0.14958373     0.03200
C437        C  0.33476756  0.79545332  0.11559364    -0.17300
C438        C  0.35253100  0.78562208  0.07883474     0.03300
C439        C  0.40296924  0.78534957  0.07887153     0.03200
C440        C  0.43042897  0.79478090  0.11569624    -0.17300
H441        H  0.46796891  0.79445974  0.11775798     0.05300
H442        H  0.29714267  0.79561065  0.11760789     0.05300
C443        C  0.41534737  0.81164475  0.35126439     0.03300
C444        C  0.36673602  0.81206106  0.35134430     0.03200
C445        C  0.33473908  0.79542818  0.38533607    -0.17300
C446        C  0.35250399  0.78559903  0.42209531     0.03300
C447        C  0.40294264  0.78532729  0.42205633     0.03200
C448        C  0.43040416  0.79476291  0.38523137    -0.17300
H449        H  0.46794564  0.79444484  0.38316961     0.05300
H450        H  0.29711353  0.79558420  0.38332383     0.05300
C451        C  0.41585441  0.60376702  0.14969498     0.03300
C452        C  0.36682807  0.55473789  0.14969993     0.03200
C453        C  0.33467988  0.53946323  0.11579340    -0.17300
C454        C  0.35253818  0.56724507  0.07907084     0.03300
C455        C  0.40330566  0.61800921  0.07906248     0.03200
C456        C  0.43110935  0.63589281  0.11577720    -0.17300
H457        H  0.46896511  0.67376135  0.11778212     0.05300
H458        H  0.29682788  0.00158564  0.11781240     0.05300
C459        C  0.36680061  0.55471430  0.35123653     0.03300
C460        C  0.41583061  0.60373969  0.35124190     0.03200
C461        C  0.43108735  0.63586476  0.38515990    -0.17300
C462        C  0.40328264  0.61798317  0.42187418     0.03300
C463        C  0.35251402  0.56722109  0.42186694     0.03200
C464        C  0.33465228  0.53944114  0.38514361    -0.17300
H465        H  0.29679774  0.00156566  0.38312480     0.05300
H466        H  0.46894495  0.67373169  0.38315501     0.05300
N467        N  0.04505165  0.61942226  0.18969994    -0.35600
N468        N  0.47459882  0.61881658  0.25046932    -0.56200
N469        N  0.04502918  0.61939280  0.31123919    -0.35600
N470        N  0.11460716  0.61827781  0.25047126    -0.56200
C471        C  0.00028937  0.60564630  0.16819968     0.27900
C472        C  0.07576606  0.60542365  0.16820717     0.27900
C473        C  0.00026272  0.60561098  0.33273632     0.27900
C474        C  0.07574222  0.60539390  0.33273197     0.27900
C475        C  0.45452539  0.63074714  0.21837913     0.36600
C476        C  0.45451372  0.63073239  0.28256086     0.36600
C477        C  0.14673835  0.63032196  0.21838543     0.36600
C478        C  0.14672921  0.63031323  0.28256139     0.36600
C479        C  0.00362877  0.58458699  0.13197324    -0.20900
C480        C  0.05114847  0.58440775  0.13198831    -0.20900
C481        C  0.00359726  0.58454581  0.36896070    -0.20900
C482        C  0.05111937  0.58437123  0.36894797    -0.20900
C483        C  0.42278902  0.65176927  0.22999521    -0.22000
C484        C  0.42278258  0.65176122  0.27094755    -0.22000
C485        C  0.19967451  0.65150518  0.23000255    -0.22000
C486        C  0.19966870  0.65150001  0.27095174    -0.22000
C487        C  0.45844782  0.61501079  0.17957950    -0.17300
C488        C  0.12700834  0.61466543  0.17956946    -0.17300
C489        C  0.12698912  0.61464469  0.32137366    -0.17300
C490        C  0.45842478  0.61498093  0.32135756    -0.17300
H491        H  0.47621727  0.57282417  0.10715457     0.15600
H492        H  0.06655676  0.57244426  0.10719275     0.15600
H493        H  0.47618304  0.57278011  0.39377780     0.15600
H494        H  0.06652741  0.57241005  0.39374439     0.15600
H495        H  0.39811062  0.66062423  0.21086657     0.13900
H496        H  0.39810019  0.66061119  0.29007667     0.13900
H497        H  0.23329192  0.66041645  0.21087418     0.13900
H498        H  0.23328043  0.66040637  0.29008481     0.13900
H499        H  0.05668241  0.64240934  0.21551146     0.27100
H500        H  0.05666562  0.64238712  0.28543176     0.27100
N501        N  0.35120459  0.92553765  0.18970489    -0.35600
N502        N  0.35232040  0.85594876  0.25046500    -0.56200
N503        N  0.35117100  0.92551330  0.31122839    -0.35600
N504        N  0.35177985  0.99597815  0.25046690    -0.56200
C505        C  0.36517138  0.89480278  0.16820535     0.27900
C506        C  0.36499093  0.97030807  0.16820839     0.27900
C507        C  0.36513501  0.89477654  0.33272779     0.27900
C508        C  0.36495395  0.97028114  0.33272761     0.27900
C509        C  0.34019101  0.82380856  0.21837359     0.36600
C510        C  0.34017895  0.82379792  0.28255080     0.36600
C511        C  0.33985989  0.51608390  0.21837807     0.36600
C512        C  0.33984471  0.51607179  0.28255563     0.36600
C513        C  0.38618684  0.91942021  0.13198683    -0.20900
C514        C  0.38603798  0.96696080  0.13197940    -0.20900
C515        C  0.38614490  0.91939015  0.36894852    -0.20900
C516        C  0.38599461  0.96692973  0.36895815    -0.20900
C517        C  0.31885342  0.77084511  0.22998184    -0.22000
C518        C  0.31884645  0.77083846  0.27093295    -0.22000
C519        C  0.31887012  0.54785296  0.22999112    -0.22000
C520        C  0.31886167  0.54784621  0.27094216    -0.22000
C521        C  0.35587129  0.84353246  0.17955815    -0.17300
C522        C  0.35560146  0.51215543  0.17958488    -0.17300
C523        C  0.35557149  0.51213239  0.32135081    -0.17300
C524        C  0.35584266  0.84351013  0.32137101    -0.17300
H525        H  0.39811226  0.90399183  0.10718198     0.15600
H526        H  0.39779428  0.99437226  0.10715940     0.15600
H527        H  0.39807204  0.90396190  0.39375208     0.15600
H528        H  0.39774951  0.99433967  0.39377956     0.15600
H529        H  0.30981976  0.73720199  0.21084278     0.13900
H530        H  0.30980724  0.73718959  0.29006604     0.13900
H531        H  0.31004900  0.57256292  0.21086589     0.13900
H532        H  0.31003470  0.57255138  0.29006847     0.13900
H533        H  0.32821140  0.91390457  0.21551220     0.27100
H534        H  0.32818511  0.91388594  0.28541732     0.27100
C535        C  0.09343259  0.66871240  0.85134174     0.03300
C536        C  0.04480735  0.66910156  0.85126503     0.03200
C537        C  0.02974760  0.68597706  0.88523341    -0.17300
C538        C  0.05722595  0.69543910  0.92205327     0.03300
C539        C  0.10766967  0.69517861  0.92208996     0.03200
C540        C  0.12543748  0.68536079  0.88532916    -0.17300
H541        H  0.16307278  0.68522413  0.88331318     0.05300
H542        H  0.49219780  0.68627924  0.88317534     0.05300
C543        C  0.04442215  0.87712605  0.85123554     0.03300
C544        C  0.09347195  0.92613200  0.85123182     0.03200
C545        C  0.12560686  0.94137810  0.88514492    -0.17300
C546        C  0.10771696  0.91359006  0.92186505     0.03300
C547        C  0.05693673  0.86283934  0.92186388     0.03200
C548        C  0.02913923  0.84498609  0.88514662    -0.17300
H549        H  0.49126796  0.80713395  0.88313446     0.05300
H550        H  0.16348771  0.97922103  0.88313466     0.05300
C551        C  0.30182199  0.87710189  0.85135412     0.03300
C552        C  0.30139739  0.92571318  0.85127506     0.03200
C553        C  0.28451290  0.94076395  0.88524274    -0.17300
C554        C  0.27507015  0.91328899  0.92206331     0.03300
C555        C  0.27533954  0.86284448  0.92209703     0.03200
C556        C  0.28518352  0.84509156  0.88533898    -0.17300
H557        H  0.28534209  0.80746374  0.88332189     0.05300
H558        H  0.28419260  0.97830823  0.88318447     0.05300
C559        C  0.09343479  0.92611613  0.64969565     0.03300
C560        C  0.04438804  0.87710831  0.64969083     0.03200
C561        C  0.02910674  0.84496861  0.61577960    -0.17300
C562        C  0.05690497  0.86282342  0.57906313     0.03300
C563        C  0.10768417  0.91357490  0.57906392     0.03200
C564        C  0.12557001  0.94136495  0.61578370    -0.17300
H565        H  0.16344904  0.97920948  0.61779579     0.05300
H566        H  0.49123716  0.80711495  0.61779161     0.05300
N567        N  0.10904266  0.55529183  0.68970493    -0.35600
N568        N  0.10791316  0.62486909  0.75046590    -0.56200
N569        N  0.10908608  0.55531334  0.81122751    -0.35600
N570        N  0.10855479  0.98490074  0.75046440    -0.56200
C571        C  0.09504036  0.58600447  0.66821260     0.27900
C572        C  0.09527444  0.51052649  0.66820599     0.27900
C573        C  0.09508901  0.58602877  0.83272300     0.27900
C574        C  0.09532472  0.51055119  0.83272800     0.27900
C575        C  0.11999142  0.65700194  0.71837684     0.36600
C576        C  0.12000771  0.65701061  0.78255189     0.36600
C577        C  0.12044109  0.96479445  0.71837125     0.36600
C578        C  0.12045883  0.96480251  0.78255270     0.36600
C579        C  0.07401914  0.56137837  0.63199735    -0.20900
C580        C  0.07420796  0.51385866  0.63198203    -0.20900
C581        C  0.07408014  0.56140853  0.86894175    -0.20900
C582        C  0.07426995  0.51388941  0.86895598    -0.20900
C583        C  0.14125485  0.70995675  0.72998651    -0.22000
C584        C  0.14126412  0.70996210  0.77093665    -0.22000
C585        C  0.14142465  0.93302006  0.72998158    -0.22000
C586        C  0.14143463  0.93302411  0.77093368    -0.22000
C587        C  0.10431200  0.63726519  0.67956541    -0.17300
C588        C  0.10468664  0.96871396  0.67957815    -0.17300
C589        C  0.10472536  0.96873194  0.82135099    -0.17300
C590        C  0.10434758  0.63728388  0.82136732    -0.17300
H591        H  0.06206162  0.57678861  0.60720002     0.15600
H592        H  0.06245994  0.48644937  0.60716085     0.15600
H593        H  0.06212423  0.57681935  0.89374032     0.15600
H594        H  0.06252428  0.48648133  0.89377734     0.15600
H595        H  0.15022377  0.74358702  0.71085205     0.13900
H596        H  0.15024062  0.74359739  0.79006846     0.13900
H597        H  0.15023511  0.90830582  0.71085261     0.13900
H598        H  0.15025243  0.90831212  0.79005791     0.13900
H599        H  0.13204310  0.56693604  0.71550874     0.27100
H600        H  0.13207369  0.56695135  0.78541733     0.27100
C601        C  0.04477643  0.66908608  0.64966586     0.03300
C602        C  0.09339953  0.66869354  0.64959058     0.03200
C603        C  0.12540541  0.68533902  0.61560443    -0.17300
C604        C  0.10764171  0.69516044  0.57884399     0.03300
C605        C  0.05719890  0.69542379  0.57887915     0.03200
C606        C  0.02971932  0.68596318  0.61569813    -0.17300
H607        H  0.49217089  0.68626807  0.61775604     0.05300
H608        H  0.16303910  0.68519933  0.61762173     0.05300
C609        C  0.30178436  0.87707960  0.64959622     0.03300
C610        C  0.30136329  0.92569370  0.64967449     0.03200
C611        C  0.28447820  0.94074266  0.61570551    -0.17300
C612        C  0.27503704  0.91326733  0.57888406     0.03300
C613        C  0.27530608  0.86282301  0.57885018     0.03200
C614        C  0.28514428  0.84506811  0.61560971    -0.17300
H615        H  0.28530115  0.80743944  0.61762524     0.05300
H616        H  0.28415959  0.97828804  0.61776234     0.05300
N617        N  0.41505674  0.55540689  0.68971576    -0.35600
N618        N  0.34499108  0.98465512  0.75047249    -0.56200
N619        N  0.41508459  0.55541495  0.81122292    -0.35600
N620        N  0.48586244  0.62546696  0.75046742    -0.56200
C621        C  0.38409527  0.51047459  0.66826871     0.27900
C622        C  0.45998771  0.58635164  0.66826686     0.27900
C623        C  0.38412679  0.51048576  0.83267200     0.27900
C624        C  0.46002142  0.58635983  0.83266660     0.27900
C625        C  0.31287318  0.96432991  0.71837853     0.36600
C626        C  0.31288586  0.96433905  0.78257311     0.36600
C627        C  0.00615489  0.65758313  0.71836966     0.36600
C628        C  0.00617069  0.65758755  0.78256261     0.36600
C629        C  0.40873576  0.51390672  0.63212489    -0.20900
C630        C  0.45654036  0.56170027  0.63212417    -0.20900
C631        C  0.40877522  0.51391966  0.86881236    -0.20900
C632        C  0.45658267  0.56171032  0.86880779    -0.20900
C633        C  0.25991089  0.93221300  0.73000107    -0.22000
C634        C  0.25991910  0.93221888  0.77096182    -0.22000
C635        C  0.03824084  0.71055904  0.72998370    -0.22000
C636        C  0.03824996  0.71056208  0.77094475    -0.22000
C637        C  0.33267328  0.96838248  0.67959595    -0.17300
C638        C  0.00210028  0.63777314  0.67959064    -0.17300
C639        C  0.00212963  0.63778196  0.82134119    -0.17300
C640        C  0.33269997  0.96839679  0.82135126    -0.17300
H641        H  0.39317361  0.48634935  0.60737010     0.15600
H642        H  0.48409428  0.57725016  0.60736853     0.15600
H643        H  0.39321509  0.48636723  0.89356944     0.15600
H644        H  0.48414290  0.57726111  0.89355966     0.15600
H645        H  0.22625498  0.90723858  0.71088780     0.13900
H646        H  0.22627123  0.90724942  0.79008306     0.13900
H647        H  0.06318131  0.74422074  0.71086341     0.13900
H648        H  0.06319729  0.74422706  0.79006116     0.13900
H649        H  0.40353797  0.56694241  0.71545447     0.27100
H650        H  0.40355689  0.56694834  0.78548794     0.27100
N651        N  0.41521804  0.86149629  0.68970316    -0.35600
N652        N  0.48567830  0.86210114  0.75046587    -0.56200
N653        N  0.41524885  0.86152020  0.81123440    -0.35600
N654        N  0.34567162  0.86265580  0.75047249    -0.56200
C655        C  0.45997640  0.87526984  0.66820042     0.27900
C656        C  0.38448883  0.87547113  0.66820686     0.27900
C657        C  0.46001255  0.87529767  0.83273185     0.27900
C658        C  0.38452378  0.87549653  0.83273414     0.27900
C659        C  0.00574131  0.85016241  0.71837446     0.36600
C660        C  0.00575818  0.85017480  0.78255345     0.36600
C661        C  0.31352381  0.85053025  0.71838828     0.36600
C662        C  0.31353838  0.85053674  0.78256433     0.36600
C663        C  0.45662424  0.89631205  0.63196980    -0.20900
C664        C  0.40909682  0.89647797  0.63198439    -0.20900
C665        C  0.45666889  0.89634600  0.86896248    -0.20900
C666        C  0.40913943  0.89650817  0.86895410    -0.20900
C667        C  0.03747067  0.82912900  0.72998507    -0.22000
C668        C  0.03748055  0.82913581  0.77093664    -0.22000
C669        C  0.26057280  0.82921916  0.73000761    -0.22000
C670        C  0.26058207  0.82922313  0.77095791    -0.22000
C671        C  0.00181252  0.86589589  0.67957761    -0.17300
C672        C  0.33323328  0.86619044  0.67956817    -0.17300
C673        C  0.33326386  0.86620940  0.82137954    -0.17300
C674        C  0.00184398  0.86591829  0.82135091    -0.17300
H675        H  0.48402496  0.90805860  0.60714538     0.15600
H676        H  0.39367256  0.90841392  0.60718351     0.15600
H677        H  0.48407552  0.90809665  0.89378343     0.15600
H678        H  0.39371745  0.90844134  0.89375838     0.15600
H679        H  0.06213921  0.82026101  0.71085440     0.13900
H680        H  0.06215691  0.82027223  0.79006181     0.13900
H681        H  0.22692909  0.82019846  0.71087714     0.13900
H682        H  0.22694702  0.82020634  0.79009730     0.13900
H683        H  0.40359277  0.83851168  0.71551532     0.27100
H684        H  0.40361451  0.83852956  0.78542477     0.27100
O685        O  0.21904808  0.65869062  0.01343126    -0.70800
O686        O  0.27659604  0.78677372  0.95024672    -0.71000
O687        O  0.31179135  0.75144092  0.01342168    -0.70900
O688        O  0.18370724  0.69388067  0.95025082    -0.70900
O689        O  0.14840323  0.72934581  0.98750896    -0.70900
O690        O  0.27648378  0.78690136  0.05068104    -0.70900
O691        O  0.24115049  0.82209490  0.98750725    -0.70800
O692        O  0.18359664  0.69400799  0.05068972    -0.71000
V693        V  0.24691125  0.72356938  0.98217197     1.35200
V694        V  0.21328115  0.75721292  0.01876212     1.35200
C695        C  0.19492068  0.65684117  0.04524950     0.78400
C696        C  0.26528529  0.82394863  0.95569230     0.78500
C697        C  0.31364865  0.77558066  0.04523620     0.78400
C698        C  0.14654717  0.70520971  0.95569237     0.78300
O699        O  0.48063257  0.69455715  0.05078478    -0.70800
O700        O  0.05082227  0.82231001  0.98720992    -0.71000
O701        O  0.48045451  0.78700096  0.05061649    -0.70900
O702        O  0.05101478  0.72998002  0.98736263    -0.74500
O703        O  0.47975486  0.69380605  0.95031115    -0.70900
O704        O  0.40921339  0.75086302  0.01354542    -0.70900
O705        O  0.47960409  0.78626515  0.95012061    -0.70800
O706        O  0.40939352  0.65852900  0.01371690    -0.71000
V707        V  0.01398295  0.75757781  0.01865457     1.35200
V708        V  0.44623999  0.72325139  0.98226168     1.35200
C709        C  0.43198100  0.65702839  0.04546304     0.78400
C710        C  0.02824879  0.82380532  0.95545493     0.78500
C711        C  0.43175113  0.77532026  0.04526072     0.78400
C712        C  0.02846080  0.70549382  0.95565997     0.78300
O713        O  0.18350046  0.99003313  0.05062581    -0.70800
O714        O  0.24057378  0.91951352  0.98738654    -0.71000
O715        O  0.27595926  0.98990045  0.05081942    -0.70900
O716        O  0.14823984  0.91967775  0.98721097    -0.70900
O717        O  0.18426108  0.99092605  0.95014575    -0.70900
O718        O  0.31199524  0.56112920  0.01372872    -0.70900
O719        O  0.27670528  0.99076859  0.95032317    -0.70800
O720        O  0.21966139  0.56129971  0.01357704    -0.71000
V721        V  0.21295342  0.95652959  0.01867231     1.35200
V722        V  0.24726896  0.52428020  0.98228123     1.35200
C723        C  0.19517981  0.53873717  0.04527862     0.78400
C724        C  0.26503126  0.94206195  0.95567466     0.78500
C725        C  0.31349815  0.53855325  0.04548178     0.78400
C726        C  0.14673721  0.94226812  0.95546508     0.78300
O727        O  0.14821453  0.91965913  0.51372280    -0.70800
O728        O  0.27594021  0.98987562  0.45012180    -0.71000
O729        O  0.24054690  0.91949097  0.51355703    -0.70900
O730        O  0.18348439  0.99001447  0.45031131    -0.70900
O731        O  0.21964131  0.56127988  0.48736292    -0.70900
O732        O  0.27667891  0.99074783  0.55061984    -0.70900
O733        O  0.31197392  0.56110672  0.48721152    -0.70800
O734        O  0.18423556  0.99090691  0.55079004    -0.71000
V735        V  0.21293198  0.95650829  0.48226664     1.35200
V736        V  0.24724616  0.52425953  0.51865844     1.35200
C737        C  0.14670949  0.94225059  0.54546763     0.78400
C738        C  0.31347721  0.53852968  0.45545819     0.78500
C739        C  0.26500233  0.94204003  0.54527013     0.78400
C740        C  0.19516143  0.53871797  0.45566072     0.78300
O741        O  0.05098913  0.72996388  0.51357007    -0.70800
O742        O  0.48042601  0.78697396  0.45031022    -0.71000
O743        O  0.05079307  0.82229229  0.51371746    -0.70900
O744        O  0.48060794  0.69453196  0.45014973    -0.70900
O745        O  0.40936745  0.65850742  0.48721635    -0.70900
O746        O  0.47957433  0.78624911  0.55080617    -0.70900
O747        O  0.40918546  0.75084065  0.48738195    -0.70800
O748        O  0.47972837  0.69379130  0.55062071    -0.71000
V749        V  0.01395584  0.75755644  0.48227568     1.35200
V750        V  0.44621241  0.72323268  0.51866816     1.35200
C751        C  0.02843453  0.70547869  0.54527244     0.78400
C752        C  0.43172332  0.77529563  0.45566624     0.78500
C753        C  0.02821870  0.82378909  0.54547184     0.78400
C754        C  0.43195665  0.65700373  0.45547203     0.78300
O755        O  0.18368517  0.69386722  0.55068756    -0.70800
O756        O  0.31176989  0.75142587  0.48751377    -0.71000
O757        O  0.27657429  0.78675945  0.55069447    -0.70900
O758        O  0.21902742  0.65867499  0.48750921    -0.70900
O759        O  0.18357508  0.69399013  0.45025078    -0.70900
O760        O  0.24112786  0.82207893  0.51343468    -0.70900
O761        O  0.27646089  0.78688420  0.45025543    -0.70800
O762        O  0.14838112  0.72933030  0.51342872    -0.71000
V763        V  0.24689037  0.72355528  0.51876690     1.35200
V764        V  0.21325954  0.75719696  0.48217710     1.35200
C765        C  0.14652356  0.70519400  0.54524444     0.78400
C766        C  0.31362482  0.77556183  0.45569770     0.78500
C767        C  0.26525967  0.82393166  0.54525120     0.78400
C768        C  0.19489884  0.65682329  0.45569177     0.78300
C769        C  0.65875021  0.05506241  0.35127083     0.03300
C770        C  0.65840051  0.10371229  0.35134407     0.03200
C771        C  0.67506784  0.13572579  0.38532743    -0.17300
C772        C  0.68486316  0.11794412  0.42208883     0.03300
C773        C  0.68509968  0.06748350  0.42205400     0.03200
C774        C  0.67561287  0.03998952  0.38523772    -0.17300
H775        H  0.67587266  0.50240809  0.38318498     0.05300
H776        H  0.67496006  0.17337935  0.38330906     0.05300
C777        C  0.65877007  0.05508147  0.14967229     0.03300
C778        C  0.65842246  0.10373302  0.14959970     0.03200
C779        C  0.67509165  0.13574663  0.11561599    -0.17300
C780        C  0.68488555  0.11796387  0.07885361     0.03300
C781        C  0.68511936  0.06750235  0.07888743     0.03200
C782        C  0.67563146  0.04000781  0.11570357    -0.17300
H783        H  0.67588870  0.50242504  0.11775435     0.05300
H784        H  0.67498500  0.17340091  0.11763418     0.05300
N785        N  0.54505246  0.42535892  0.18971634    -0.35600
N786        N  0.97429000  0.35525961  0.25046587    -0.56200
N787        N  0.54503532  0.42534555  0.31121929    -0.35600
N788        N  0.61508679  0.49616151  0.25046968    -0.56200
C789        C  0.00012937  0.39439750  0.16826612     0.27900
C790        C  0.57600107  0.47029488  0.16826955     0.27900
C791        C  0.00010873  0.39438359  0.33266687     0.27900
C792        C  0.57598397  0.47027821  0.33266936     0.27900
C793        C  0.95396729  0.32315096  0.21836666     0.36600
C794        C  0.95395474  0.32314493  0.28256078     0.36600
C795        C  0.64722816  0.01643711  0.21837591     0.36600
C796        C  0.64722065  0.01642695  0.28256766     0.36600
C797        C  0.50356982  0.41904518  0.13212256    -0.20900
C798        C  0.55135932  0.46685463  0.13212607    -0.20900
C799        C  0.50354685  0.41902843  0.36881172    -0.20900
C800        C  0.55133958  0.46683489  0.36881264    -0.20900
C801        C  0.92183052  0.27018235  0.22997992    -0.22000
C802        C  0.92182313  0.27017824  0.27094051    -0.22000
C803        C  0.70020615  0.04845692  0.22999451    -0.22000
C804        C  0.70020122  0.04845085  0.27095598    -0.22000
C805        C  0.95802912  0.34296822  0.17958893    -0.17300
C806        C  0.62743518  0.01240564  0.17959566    -0.17300
C807        C  0.62741991  0.01238878  0.32134612    -0.17300
C808        C  0.95800758  0.34295597  0.32134029    -0.17300
H809        H  0.97602458  0.40348110  0.10736285     0.15600
H810        H  0.56691595  0.49441192  0.10737149     0.15600
H811        H  0.97599725  0.40346429  0.39356911     0.15600
H812        H  0.56689651  0.49438812  0.39357009     0.15600
H813        H  0.89684625  0.23653393  0.21086095     0.13900
H814        H  0.89683342  0.23652522  0.29005370     0.13900
H815        H  0.73388300  0.07335632  0.21087655     0.13900
H816        H  0.73387313  0.07334576  0.29007943     0.13900
H817        H  0.55658248  0.41383171  0.21545318     0.27100
H818        H  0.55656923  0.41382253  0.28548196     0.27100
C819        C  0.91535423  0.31166132  0.14966514     0.03300
C820        C  0.86675049  0.31209114  0.14958281     0.03200
C821        C  0.83475537  0.29546063  0.11559193    -0.17300
C822        C  0.85251743  0.28562241  0.07883478     0.03300
C823        C  0.90295334  0.28534534  0.07887396     0.03200
C824        C  0.93041008  0.29477523  0.11569974    -0.17300
H825        H  0.96794774  0.29444983  0.11776348     0.05300
H826        H  0.79713265  0.29562250  0.11760434     0.05300
C827        C  0.91532944  0.31164337  0.35126261     0.03300
C828        C  0.86672205  0.31206740  0.35134517     0.03200
C829        C  0.83472678  0.29543548  0.38533767    -0.17300
C830        C  0.85249038  0.28559958  0.42209524     0.03300
C831        C  0.90292675  0.28532335  0.42205392     0.03200
C832        C  0.93038524  0.29475725  0.38522792    -0.17300
H833        H  0.96792436  0.29443489  0.38316423     0.05300
H834        H  0.79710333  0.29559593  0.38332717     0.05300
C835        C  0.91585380  0.10376538  0.14969742     0.03300
C836        C  0.86683594  0.05472808  0.14970061     0.03200
C837        C  0.83468712  0.03944891  0.11579471    -0.17300
C838        C  0.85253769  0.06723815  0.07907448     0.03300
C839        C  0.90329948  0.11800713  0.07906686     0.03200
C840        C  0.93110199  0.13589356  0.11578140    -0.17300
H841        H  0.96895271  0.17376722  0.11778717     0.05300
H842        H  0.79681467  0.50160585  0.11781209     0.05300
C843        C  0.86680834  0.05470444  0.35123594     0.03300
C844        C  0.91582987  0.10373795  0.35123953     0.03200
C845        C  0.93107999  0.13586554  0.38515574    -0.17300
C846        C  0.90327642  0.11798094  0.42186986     0.03300
C847        C  0.85251346  0.06721411  0.42186334     0.03200
C848        C  0.83465935  0.03942701  0.38514230    -0.17300
H849        H  0.79678480  0.50158582  0.38312502     0.05300
H850        H  0.96893230  0.17373749  0.38314997     0.05300
N851        N  0.54505511  0.11943089  0.18970088    -0.35600
N852        N  0.97460657  0.11883430  0.25046938    -0.56200
N853        N  0.54503247  0.11940135  0.31123823    -0.35600
N854        N  0.61460970  0.11828495  0.25047120    -0.56200
C855        C  0.50029272  0.10565475  0.16820084     0.27900
C856        C  0.57576847  0.10543036  0.16820841     0.27900
C857        C  0.50026584  0.10561922  0.33273520     0.27900
C858        C  0.57574448  0.10540037  0.33273062     0.27900
C859        C  0.95452443  0.13075411  0.21837929     0.36600
C860        C  0.95451279  0.13073945  0.28256078     0.36600
C861        C  0.64674126  0.13033154  0.21838558     0.36600
C862        C  0.64673207  0.13032290  0.28256114     0.36600
C863        C  0.50363151  0.08459426  0.13197472    -0.20900
C864        C  0.55115004  0.08441291  0.13199019    -0.20900
C865        C  0.50359985  0.08455276  0.36895921    -0.20900
C866        C  0.55112088  0.08437611  0.36894606    -0.20900
C867        C  0.92277311  0.15175965  0.22999525    -0.22000
C868        C  0.92276670  0.15175162  0.27094749    -0.22000
C869        C  0.69967792  0.15151929  0.23000251    -0.22000
C870        C  0.69967201  0.15151419  0.27095168    -0.22000
C871        C  0.95844977  0.11501745  0.17958057    -0.17300
C872        C  0.62701102  0.11467264  0.17957027    -0.17300
C873        C  0.62699169  0.11465185  0.32137272    -0.17300
C874        C  0.95842657  0.11498752  0.32135652    -0.17300
H875        H  0.97622020  0.07283194  0.10715594     0.15600
H876        H  0.56655716  0.07244722  0.10719507     0.15600
H877        H  0.97618577  0.07278759  0.39377640     0.15600
H878        H  0.56652785  0.07241300  0.39374192     0.15600
H879        H  0.89808470  0.16060183  0.21086713     0.13900
H880        H  0.89807409  0.16058870  0.29007605     0.13900
H881        H  0.73329567  0.16043280  0.21087396     0.13900
H882        H  0.73328414  0.16042287  0.29008508     0.13900
H883        H  0.55668667  0.14241904  0.21551180     0.27100
H884        H  0.55666984  0.14239696  0.28543150     0.27100
N885        N  0.85118514  0.42554232  0.18970443    -0.35600
N886        N  0.85230197  0.35595418  0.25046504    -0.56200
N887        N  0.85115188  0.42551801  0.31122869    -0.35600
N888        N  0.85175405  0.49598008  0.25046687    -0.56200
C889        C  0.86515372  0.39480833  0.16820501     0.27900
C890        C  0.86497055  0.47031251  0.16820769     0.27900
C891        C  0.86511753  0.39478204  0.33272808     0.27900
C892        C  0.86493393  0.47028563  0.33272819     0.27900
C893        C  0.84017882  0.32381492  0.21837353     0.36600
C894        C  0.84016676  0.32380420  0.28255085     0.36600
C895        C  0.83987449  0.01607263  0.21837840     0.36600
C896        C  0.83985938  0.01606060  0.28255535     0.36600
C897        C  0.88616904  0.41942590  0.13198659    -0.20900
C898        C  0.88601799  0.46696525  0.13197876    -0.20900
C899        C  0.88612716  0.41939572  0.36894876    -0.20900
C900        C  0.88597488  0.46693416  0.36895867    -0.20900
C901        C  0.81885104  0.27085292  0.22998186    -0.22000
C902        C  0.81884413  0.27084627  0.27093277    -0.22000
C903        C  0.81886659  0.04782588  0.22999112    -0.22000
C904        C  0.81885825  0.04781922  0.27094216    -0.22000
C905        C  0.85585730  0.34353913  0.17955788    -0.17300
C906        C  0.85561798  0.01214820  0.17958538    -0.17300
C907        C  0.85558793  0.01212512  0.32135040    -0.17300
C908        C  0.85582862  0.34351666  0.32137127    -0.17300
H909        H  0.89809740  0.40399914  0.10718249     0.15600
H910        H  0.89777568  0.49437728  0.10715905     0.15600
H911        H  0.89805691  0.40396895  0.39375163     0.15600
H912        H  0.89773111  0.49434468  0.39377987     0.15600
H913        H  0.80982576  0.23721200  0.21084296     0.13900
H914        H  0.80981335  0.23719931  0.29006567     0.13900
H915        H  0.81002936  0.07252333  0.21086527     0.13900
H916        H  0.81001530  0.07251205  0.29006903     0.13900
H917        H  0.82819304  0.41390950  0.21551221     0.27100
H918        H  0.82816703  0.41389092  0.28541724     0.27100
C919        C  0.59341901  0.16871342  0.85134240     0.03300
C920        C  0.54480186  0.16911872  0.85126361     0.03200
C921        C  0.52974688  0.18599897  0.88523240    -0.17300
C922        C  0.55721952  0.19544755  0.92205381     0.03300
C923        C  0.60765817  0.19517755  0.92209051     0.03200
C924        C  0.62542300  0.18535603  0.88533007    -0.17300
H925        H  0.66305437  0.18521136  0.88331443     0.05300
H926        H  0.99220257  0.18631193  0.88317432     0.05300
C927        C  0.54441262  0.37710647  0.85123597     0.03300
C928        C  0.59345626  0.42611856  0.85123285     0.03200
C929        C  0.62559158  0.44137137  0.88514622    -0.17300
C930        C  0.60770740  0.41358288  0.92186660     0.03300
C931        C  0.55692970  0.36282934  0.92186592     0.03200
C932        C  0.52913540  0.34496835  0.88514783    -0.17300
H933        H  0.99126881  0.30711161  0.88313580     0.05300
H934        H  0.66346835  0.47921827  0.88313544     0.05300
C935        C  0.80181380  0.37708740  0.85135296     0.03300
C936        C  0.80139500  0.42570165  0.85127280     0.03200
C937        C  0.78451091  0.44075626  0.88523867    -0.17300
C938        C  0.77506473  0.41328245  0.92205957     0.03300
C939        C  0.77532855  0.36283543  0.92209464     0.03200
C940        C  0.78516975  0.34507788  0.88533766    -0.17300
H941        H  0.78532241  0.30744700  0.88332160     0.05300
H942        H  0.78419503  0.47830279  0.88317918     0.05300
C943        C  0.59341920  0.42610268  0.64969463     0.03300
C944        C  0.54437869  0.37708861  0.64969042     0.03200
C945        C  0.52910317  0.34495069  0.61577847    -0.17300
C946        C  0.55689807  0.36281328  0.57906112     0.03300
C947        C  0.60767456  0.41356772  0.57906233     0.03200
C948        C  0.62555461  0.44135823  0.61578230    -0.17300
H949        H  0.66342963  0.47920689  0.61779483     0.05300
H950        H  0.99123794  0.30709234  0.61779034     0.05300
N951        N  0.60904752  0.05530281  0.68970435    -0.35600
N952        N  0.60788604  0.12486431  0.75046589    -0.56200
N953        N  0.60909089  0.05532439  0.81122814    -0.35600
N954        N  0.60852207  0.48487560  0.75046441    -0.56200
C955        C  0.59503404  0.08600746  0.66821237     0.27900
C956        C  0.59529275  0.01054169  0.66820410     0.27900
C957        C  0.59508247  0.08603174  0.83272322     0.27900
C958        C  0.59534315  0.01056656  0.83273006     0.27900
C959        C  0.61996995  0.15699857  0.71837730     0.36600
C960        C  0.61998627  0.15700726  0.78255144     0.36600
C961        C  0.62041941  0.46477845  0.71837159     0.36600
C962        C  0.62043701  0.46478639  0.78255238     0.36600
C963        C  0.57401915  0.06138116  0.63199625    -0.20900
C964        C  0.57422611  0.01387069  0.63197916    -0.20900
C965        C  0.57407996  0.06141143  0.86894285    -0.20900
C966        C  0.57428827  0.01390170  0.86895904    -0.20900
C967        C  0.64124142  0.20995425  0.72998664    -0.22000
C968        C  0.64125073  0.20995969  0.77093659    -0.22000
C969        C  0.64142017  0.43301907  0.72998155    -0.22000
C970        C  0.64143007  0.43302310  0.77093380    -0.22000
C971        C  0.60429381  0.13726362  0.67956577    -0.17300
C972        C  0.60466465  0.46869652  0.67957878    -0.17300
C973        C  0.60470329  0.46871445  0.82135032    -0.17300
C974        C  0.60432936  0.13728236  0.82136694    -0.17300
H975        H  0.56205322  0.07678524  0.60719993     0.15600
H976        H  0.56248696  0.98646420  0.60715676     0.15600
H977        H  0.56211565  0.07681621  0.89374038     0.15600
H978        H  0.56255159  0.98649657  0.89378171     0.15600
H979        H  0.65021784  0.24358608  0.71085174     0.13900
H980        H  0.65023469  0.24359642  0.79006871     0.13900
H981        H  0.65024447  0.40831575  0.71085197     0.13900
H982        H  0.65026179  0.40832205  0.79005874     0.13900
H983        H  0.63204506  0.06695051  0.71550949     0.27100
H984        H  0.63207550  0.06696583  0.78541663     0.27100
C985        C  0.54477105  0.16910337  0.64966728     0.03300
C986        C  0.59338596  0.16869445  0.64958987     0.03200
C987        C  0.62539087  0.18533393  0.61560339    -0.17300
C988        C  0.60763015  0.19515920  0.57884336     0.03300
C989        C  0.55719253  0.19543229  0.57887864     0.03200
C990        C  0.52971872  0.18598521  0.61569918    -0.17300
H991        H  0.99217592  0.18630126  0.61775720     0.05300
H992        H  0.66302042  0.18518603  0.61762027     0.05300
C993        C  0.80177643  0.37706522  0.64959725     0.03300
C994        C  0.80136085  0.42568210  0.64967673     0.03200
C995        C  0.78447602  0.44073490  0.61570957    -0.17300
C996        C  0.77503156  0.41326075  0.57888775     0.03300
C997        C  0.77529522  0.36281406  0.57885248     0.03200
C998        C  0.78513080  0.34505464  0.61561090    -0.17300
H999        H  0.78528188  0.30742284  0.61762540     0.05300
H1000       H  0.78416142  0.47828217  0.61776768     0.05300
N1001       N  0.91504833  0.05542654  0.68971445    -0.35600
N1002       N  0.84499200  0.48464269  0.75047248    -0.56200
N1003       N  0.91507603  0.05543473  0.81122416    -0.35600
N1004       N  0.98584545  0.12549128  0.75046737    -0.56200
C1005       C  0.88409075  0.01049342  0.66826702     0.27900
C1006       C  0.95998023  0.08637299  0.66826677     0.27900
C1007       C  0.88412211  0.01050464  0.83267376     0.27900
C1008       C  0.96001386  0.08638113  0.83266670     0.27900
C1009       C  0.81287399  0.46431998  0.71837883     0.36600
C1010       C  0.81288670  0.46432903  0.78257280     0.36600
C1011       C  0.50614484  0.15760594  0.71836950     0.36600
C1012       C  0.50616062  0.15761028  0.78256273     0.36600
C1013       C  0.90873359  0.01392765  0.63212388    -0.20900
C1014       C  0.95653706  0.06172199  0.63212462    -0.20900
C1015       C  0.90877305  0.01394067  0.86881330    -0.20900
C1016       C  0.95657924  0.06173198  0.86880727    -0.20900
C1017       C  0.75991085  0.43220731  0.73000111    -0.22000
C1018       C  0.75991905  0.43221298  0.77096183    -0.22000
C1019       C  0.53824117  0.21057977  0.72998376    -0.22000
C1020       C  0.53825034  0.21058282  0.77094475    -0.22000
C1021       C  0.83267497  0.46836865  0.67959744    -0.17300
C1022       C  0.50209197  0.13779435  0.67959112    -0.17300
C1023       C  0.50212123  0.13780303  0.82134068    -0.17300
C1024       C  0.83270175  0.46838305  0.82134974    -0.17300
H1025       H  0.89317500  0.98636996  0.60736928     0.15600
H1026       H  0.98409417  0.07727180  0.60737081     0.15600
H1027       H  0.89321650  0.98638779  0.89357035     0.15600
H1028       H  0.98414271  0.07728265  0.89355747     0.15600
H1029       H  0.72625448  0.40723405  0.71088781     0.13900
H1030       H  0.72627083  0.40724456  0.79008300     0.13900
H1031       H  0.56319270  0.24423740  0.71086364     0.13900
H1032       H  0.56320855  0.24424350  0.79006096     0.13900
H1033       H  0.90352693  0.06695955  0.71545309     0.27100
H1034       H  0.90354576  0.06696562  0.78548937     0.27100
N1035       N  0.91520102  0.36146227  0.68970067    -0.35600
N1036       N  0.98565698  0.36206237  0.75046591    -0.56200
N1037       N  0.91523171  0.36148621  0.81123678    -0.35600
N1038       N  0.84566081  0.36263189  0.75047244    -0.56200
C1039       C  0.95995930  0.37523492  0.66819798     0.27900
C1040       C  0.88447403  0.37544062  0.66820481     0.27900
C1041       C  0.95999528  0.37526283  0.83273424     0.27900
C1042       C  0.88450869  0.37546592  0.83273611     0.27900
C1043       C  0.50573088  0.35013638  0.71837418     0.36600
C1044       C  0.50574772  0.35014883  0.78255378     0.36600
C1045       C  0.81351342  0.35051141  0.71838831     0.36600
C1046       C  0.81352789  0.35051779  0.78256419     0.36600
C1047       C  0.95660764  0.39627731  0.63196721    -0.20900
C1048       C  0.90908173  0.39644588  0.63198205    -0.20900
C1049       C  0.95665206  0.39631131  0.86896503    -0.20900
C1050       C  0.90912402  0.39647595  0.86895635    -0.20900
C1051       C  0.53747758  0.32912352  0.72998526    -0.22000
C1052       C  0.53748740  0.32913031  0.77093664    -0.22000
C1053       C  0.76056368  0.32920862  0.73000768    -0.22000
C1054       C  0.76057293  0.32921253  0.77095768    -0.22000
C1055       C  0.50179939  0.36586773  0.67957677    -0.17300
C1056       C  0.83322246  0.36616943  0.67956795    -0.17300
C1057       C  0.83325282  0.36618826  0.82137965    -0.17300
C1058       C  0.50183078  0.36589026  0.82135171    -0.17300
H1059       H  0.98401007  0.40802664  0.60714359     0.15600
H1060       H  0.89365977  0.40838603  0.60718214     0.15600
H1061       H  0.98406030  0.40806479  0.89378512     0.15600
H1062       H  0.89370424  0.40841330  0.89375971     0.15600
H1063       H  0.56216085  0.32027544  0.71085497     0.13900
H1064       H  0.56217842  0.32028665  0.79006150     0.13900
H1065       H  0.72692168  0.32019454  0.71087736     0.13900
H1066       H  0.72693965  0.32020235  0.79009700     0.13900
H1067       H  0.90357594  0.33848004  0.71551398     0.27100
H1068       H  0.90359766  0.33849803  0.78542601     0.27100
O1069       O  0.71903485  0.15868670  0.01343032    -0.70800
O1070       O  0.77658464  0.28676767  0.95024704    -0.71000
O1071       O  0.81177765  0.25143553  0.01342251    -0.70900
O1072       O  0.68369461  0.19387662  0.95025040    -0.70900
O1073       O  0.64839022  0.22934078  0.98750927    -0.70900
O1074       O  0.77647142  0.28690031  0.05067877    -0.70900
O1075       O  0.74113646  0.32208920  0.98750456    -0.70800
O1076       O  0.68358616  0.19400623  0.05068962    -0.71000
V1077       V  0.74689837  0.22356449  0.98217179     1.35200
V1078       V  0.71326852  0.25720936  0.01876103     1.35200
C1079       C  0.69491073  0.15683982  0.04524934     0.78400
C1080       C  0.76527302  0.32394198  0.95569086     0.78500
C1081       C  0.81363557  0.27557838  0.04523558     0.78400
C1082       C  0.64653456  0.20520565  0.95569251     0.78300
O1083       O  0.98062372  0.19455509  0.05078844    -0.70800
O1084       O  0.55081021  0.32230856  0.98721575    -0.71000
O1085       O  0.98044024  0.28699574  0.05062189    -0.70900
O1086       O  0.55100598  0.22998167  0.98736585    -0.74500
O1087       O  0.97974470  0.19380244  0.95031568    -0.70900
O1088       O  0.90920164  0.25085988  0.01354816    -0.70900
O1089       O  0.97959437  0.28626055  0.95012404    -0.70800
O1090       O  0.90938338  0.15852658  0.01372187    -0.71000
V1091       V  0.51397178  0.25757592  0.01865924     1.35200
V1092       V  0.94622938  0.22324799  0.98226578     1.35200
C1093       C  0.93197218  0.15702642  0.04546743     0.78400
C1094       C  0.52823900  0.32380047  0.95545872     0.78500
C1095       C  0.93173720  0.27531562  0.04526446     0.78400
C1096       C  0.52845235  0.20549532  0.95566293     0.78300
O1097       O  0.68350213  0.49002925  0.05062416    -0.70800
O1098       O  0.74057497  0.41951149  0.98738374    -0.71000
O1099       O  0.77596357  0.48990183  0.05081548    -0.70900
O1100       O  0.64823900  0.41967215  0.98721029    -0.70900
O1101       O  0.68425520  0.49091990  0.95014460    -0.70900
O1102       O  0.81199480  0.06112977  0.01373473    -0.70900
O1103       O  0.77670046  0.49076388  0.95031754    -0.70800
O1104       O  0.71966301  0.06130391  0.01357896    -0.71000
V1105       V  0.71295510  0.45652703  0.01866994     1.35200
V1106       V  0.74727160  0.02428407  0.98228492     1.35200
C1107       C  0.69518003  0.03874172  0.04528015     0.78400
C1108       C  0.76502818  0.44205787  0.95567023     0.78500
C1109       C  0.81349575  0.03855086  0.04548664     0.78400
C1110       C  0.64673193  0.44226188  0.95546515     0.78300
O1111       O  0.64821357  0.41965347  0.51372338    -0.70800
O1112       O  0.77594456  0.48987709  0.45012576    -0.71000
O1113       O  0.74054788  0.41948886  0.51355979    -0.70900
O1114       O  0.68348599  0.49001065  0.45031302    -0.70900
O1115       O  0.71964282  0.06128400  0.48736097    -0.70900
O1116       O  0.77667405  0.49074303  0.55062541    -0.70900
O1117       O  0.81197348  0.06110721  0.48720552    -0.70800
O1118       O  0.68422973  0.49090070  0.55079109    -0.71000
V1119       V  0.71293361  0.45650576  0.48226898     1.35200
V1120       V  0.74724883  0.02426342  0.51865477     1.35200
C1121       C  0.64670418  0.44224432  0.54546749     0.78400
C1122       C  0.81347478  0.03852717  0.45545337     0.78500
C1123       C  0.76499907  0.44203586  0.54527451     0.78400
C1124       C  0.69516157  0.03872246  0.45565916     0.78300
O1125       O  0.55098023  0.22996531  0.51356684    -0.70800
O1126       O  0.98041166  0.28696878  0.45030495    -0.71000
O1127       O  0.55078100  0.32229070  0.51371163    -0.70900
O1128       O  0.98059893  0.19452978  0.45014612    -0.70900
O1129       O  0.90935709  0.15850495  0.48721133    -0.70900
O1130       O  0.97956438  0.28624450  0.55080274    -0.70900
O1131       O  0.90917351  0.25083749  0.48737919    -0.70800
O1132       O  0.97971818  0.19378771  0.55061624    -0.71000
V1133       V  0.51394456  0.25755443  0.48227103     1.35200
V1134       V  0.94620161  0.22322922  0.51866408     1.35200
C1135       C  0.52842609  0.20548013  0.54526950     0.78400
C1136       C  0.93170930  0.27529112  0.45566259     0.78500
C1137       C  0.52820894  0.32378414  0.54546806     0.78400
C1138       C  0.93194770  0.15700166  0.45546765     0.78300
O1139       O  0.68367254  0.19386331  0.55068785    -0.70800
O1140       O  0.81175610  0.25142071  0.48751283    -0.71000
O1141       O  0.77656282  0.28675351  0.55069403    -0.70900
O1142       O  0.71901393  0.15867112  0.48751011    -0.70900
O1143       O  0.68356456  0.19398856  0.45025079    -0.70900
O1144       O  0.74111387  0.32207349  0.51343728    -0.70900
O1145       O  0.77644852  0.28688343  0.45025758    -0.70800
O1146       O  0.64836809  0.22932541  0.51342831    -0.71000
V1147       V  0.74687742  0.22355055  0.51876696     1.35200
V1148       V  0.71324688  0.25719363  0.48217810     1.35200
C1149       C  0.64651090  0.20518995  0.54524419     0.78400
C1150       C  0.81361168  0.27555983  0.45569821     0.78500
C1151       C  0.76524743  0.32392518  0.54525254     0.78400
C1152       C  0.69488869  0.15682200  0.45569189     0.78300
C1153       C  0.65874172  0.55505179  0.35127268     0.03300
C1154       C  0.65839719  0.60370428  0.35134516     0.03200
C1155       C  0.67506832  0.63571997  0.38532785    -0.17300
C1156       C  0.68486649  0.61794081  0.42208946     0.03300
C1157       C  0.68509731  0.56747719  0.42205550     0.03200
C1158       C  0.67560254  0.53997816  0.38524029    -0.17300
H1159       H  0.67588853  0.00242227  0.38318134     0.05300
H1160       H  0.67496299  0.67337486  0.38330877     0.05300
C1161       C  0.65876145  0.55507077  0.14967046     0.03300
C1162       C  0.65841900  0.60372492  0.14959866     0.03200
C1163       C  0.67509232  0.63574098  0.11561568    -0.17300
C1164       C  0.68488898  0.61796063  0.07885307     0.03300
C1165       C  0.68511688  0.56749596  0.07888596     0.03200
C1166       C  0.67562094  0.53999640  0.11570102    -0.17300
H1167       H  0.67590474  0.00243937  0.11775797     0.05300
H1168       H  0.67498839  0.67339657  0.11763462     0.05300
N1169       N  0.54506840  0.92536398  0.18971614    -0.35600
N1170       N  0.97430913  0.85526199  0.25046584    -0.56200
N1171       N  0.54505138  0.92535052  0.31121956    -0.35600
N1172       N  0.61510123  0.99616869  0.25046967    -0.56200
C1173       C  0.00014713  0.89439997  0.16826494     0.27900
C1174       C  0.57601428  0.97030188  0.16827034     0.27900
C1175       C  0.00012658  0.89438604  0.33266807     0.27900
C1176       C  0.57599719  0.97028520  0.33266851     0.27900
C1177       C  0.95398231  0.82315386  0.21836647     0.36600
C1178       C  0.95396987  0.82314790  0.28256101     0.36600
C1179       C  0.64721470  0.51642512  0.21837560     0.36600
C1180       C  0.64720721  0.51641499  0.28256800     0.36600
C1181       C  0.50358666  0.91904748  0.13212150    -0.20900
C1182       C  0.55137248  0.96686023  0.13212663    -0.20900
C1183       C  0.50356363  0.91903069  0.36881281    -0.20900
C1184       C  0.55135279  0.96684052  0.36881208    -0.20900
C1185       C  0.92183847  0.77018661  0.22998005    -0.22000
C1186       C  0.92183119  0.77018259  0.27094050    -0.22000
C1187       C  0.70019338  0.54843723  0.22999445    -0.22000
C1188       C  0.70018849  0.54843129  0.27095609    -0.22000
C1189       C  0.95804690  0.84297037  0.17958783    -0.17300
C1190       C  0.62742384  0.51239526  0.17959439    -0.17300
C1191       C  0.62740860  0.51237839  0.32134747    -0.17300
C1192       C  0.95802538  0.84295826  0.32134137    -0.17300
H1193       H  0.97604259  0.90348271  0.10736122     0.15600
H1194       H  0.56692686  0.99441938  0.10737289     0.15600
H1195       H  0.97601537  0.90346596  0.39357070     0.15600
H1196       H  0.56690745  0.99439546  0.39356862     0.15600
H1197       H  0.89684841  0.73654005  0.21086146     0.13900
H1198       H  0.89683578  0.73653157  0.29005347     0.13900
H1199       H  0.73387141  0.57333108  0.21087603     0.13900
H1200       H  0.73386146  0.57332062  0.29007993     0.13900
H1201       H  0.55659914  0.91383828  0.21545333     0.27100
H1202       H  0.55658603  0.91382897  0.28548180     0.27100
C1203       C  0.91537221  0.81166262  0.14966339     0.03300
C1204       C  0.86676445  0.81208466  0.14958374     0.03200
C1205       C  0.83476771  0.79545332  0.11559363    -0.17300
C1206       C  0.85253120  0.78562216  0.07883472     0.03300
C1207       C  0.90296947  0.78534966  0.07887152     0.03200
C1208       C  0.93042926  0.79478111  0.11569622    -0.17300
H1209       H  0.96796925  0.79446010  0.11775798     0.05300
H1210       H  0.79714282  0.79561062  0.11760785     0.05300
C1211       C  0.91534741  0.81164480  0.35126440     0.03300
C1212       C  0.86673605  0.81206105  0.35134431     0.03200
C1213       C  0.83473909  0.79542821  0.38533607    -0.17300
C1214       C  0.85250399  0.78559904  0.42209531     0.03300
C1215       C  0.90294269  0.78532736  0.42205635     0.03200
C1216       C  0.93040428  0.79476312  0.38523141    -0.17300
H1217       H  0.96794584  0.79444520  0.38316968     0.05300
H1218       H  0.79711359  0.79558433  0.38332384     0.05300
C1219       C  0.91585444  0.60376713  0.14969499     0.03300
C1220       C  0.86682815  0.55473795  0.14969994     0.03200
C1221       C  0.83468001  0.53946318  0.11579336    -0.17300
C1222       C  0.85253823  0.56724509  0.07907083     0.03300
C1223       C  0.90330565  0.61800927  0.07906249     0.03200
C1224       C  0.93110927  0.63589288  0.11577721    -0.17300
H1225       H  0.96896509  0.67376156  0.11778212     0.05300
H1226       H  0.79682785  0.00158564  0.11781240     0.05300
C1227       C  0.86680062  0.55471431  0.35123653     0.03300
C1228       C  0.91583058  0.60373973  0.35124189     0.03200
C1229       C  0.93108738  0.63586478  0.38515990    -0.17300
C1230       C  0.90328273  0.61798314  0.42187420     0.03300
C1231       C  0.85251405  0.56722109  0.42186694     0.03200
C1232       C  0.83465228  0.53944115  0.38514360    -0.17300
H1233       H  0.79679770  0.00156573  0.38312473     0.05300
H1234       H  0.96894494  0.67373173  0.38315500     0.05300
N1235       N  0.54505167  0.61942225  0.18969994    -0.35600
N1236       N  0.97459878  0.61881658  0.25046932    -0.56200
N1237       N  0.54502925  0.61939279  0.31123919    -0.35600
N1238       N  0.61460729  0.61827784  0.25047124    -0.56200
C1239       C  0.50028937  0.60564624  0.16819969     0.27900
C1240       C  0.57576611  0.60542367  0.16820717     0.27900
C1241       C  0.50026284  0.60561096  0.33273634     0.27900
C1242       C  0.57574236  0.60539391  0.33273195     0.27900
C1243       C  0.95452538  0.63074718  0.21837913     0.36600
C1244       C  0.95451366  0.63073239  0.28256085     0.36600
C1245       C  0.64673847  0.63032191  0.21838542     0.36600
C1246       C  0.64672934  0.63031335  0.28256137     0.36600
C1247       C  0.50362879  0.58458698  0.13197324    -0.20900
C1248       C  0.55114849  0.58440777  0.13198831    -0.20900
C1249       C  0.50359738  0.58454580  0.36896076    -0.20900
C1250       C  0.55111954  0.58437127  0.36894796    -0.20900
C1251       C  0.92278896  0.65176926  0.22999522    -0.22000
C1252       C  0.92278253  0.65176121  0.27094755    -0.22000
C1253       C  0.69967463  0.65150521  0.23000259    -0.22000
C1254       C  0.69966883  0.65150023  0.27095176    -0.22000
C1255       C  0.95844790  0.61501096  0.17957948    -0.17300
C1256       C  0.62700842  0.61466543  0.17956945    -0.17300
C1257       C  0.62698923  0.61464477  0.32137363    -0.17300
C1258       C  0.95842471  0.61498095  0.32135754    -0.17300
H1259       H  0.97621729  0.57282421  0.10715456     0.15600
H1260       H  0.56655677  0.57244430  0.10719274     0.15600
H1261       H  0.97618278  0.57278004  0.39377779     0.15600
H1262       H  0.56652767  0.57241020  0.39374442     0.15600
H1263       H  0.89811057  0.66062422  0.21086658     0.13900
H1264       H  0.89810015  0.66061117  0.29007667     0.13900
H1265       H  0.73329215  0.66041645  0.21087425     0.13900
H1266       H  0.73328059  0.66040674  0.29008487     0.13900
H1267       H  0.55668240  0.64240930  0.21551147     0.27100
H1268       H  0.55666567  0.64238710  0.28543175     0.27100
N1269       N  0.85120456  0.92553765  0.18970489    -0.35600
N1270       N  0.85232034  0.85594873  0.25046506    -0.56200
N1271       N  0.85117125  0.92551338  0.31122841    -0.35600
N1272       N  0.85177994  0.99597824  0.25046691    -0.56200
C1273       C  0.86517134  0.89480276  0.16820536     0.27900
C1274       C  0.86499090  0.97030806  0.16820839     0.27900
C1275       C  0.86513511  0.89477654  0.33272782     0.27900
C1276       C  0.86495420  0.97028120  0.33272757     0.27900
C1277       C  0.84019097  0.82380854  0.21837365     0.36600
C1278       C  0.84017902  0.82379793  0.28255087     0.36600
C1279       C  0.83985990  0.51608384  0.21837807     0.36600
C1280       C  0.83984481  0.51607179  0.28255563     0.36600
C1281       C  0.88618680  0.91942020  0.13198683    -0.20900
C1282       C  0.88603795  0.96696079  0.13197940    -0.20900
C1283       C  0.88614495  0.91939011  0.36894857    -0.20900
C1284       C  0.88599483  0.96692978  0.36895814    -0.20900
C1285       C  0.81885350  0.77084513  0.22998192    -0.22000
C1286       C  0.81884666  0.77083857  0.27093299    -0.22000
C1287       C  0.81886996  0.54785278  0.22999110    -0.22000
C1288       C  0.81886162  0.54784609  0.27094215    -0.22000
C1289       C  0.85587128  0.84353244  0.17955818    -0.17300
C1290       C  0.85560150  0.51215546  0.17958489    -0.17300
C1291       C  0.85557158  0.51213243  0.32135080    -0.17300
C1292       C  0.85584275  0.84351014  0.32137104    -0.17300
H1293       H  0.89811224  0.90399183  0.10718198     0.15600
H1294       H  0.89779426  0.99437227  0.10715940     0.15600
H1295       H  0.89807195  0.90396179  0.39375215     0.15600
H1296       H  0.89774968  0.99433967  0.39377957     0.15600
H1297       H  0.80981985  0.73720201  0.21084289     0.13900
H1298       H  0.80980758  0.73718957  0.29006614     0.13900
H1299       H  0.81004873  0.57256258  0.21086589     0.13900
H1300       H  0.81003467  0.57255129  0.29006845     0.13900
H1301       H  0.82821139  0.91390458  0.21551221     0.27100
H1302       H  0.82818531  0.91388602  0.28541732     0.27100
C1303       C  0.59343274  0.66871265  0.85134172     0.03300
C1304       C  0.54480745  0.66910170  0.85126503     0.03200
C1305       C  0.52974772  0.68597727  0.88523338    -0.17300
C1306       C  0.55722602  0.69543924  0.92205326     0.03300
C1307       C  0.60766976  0.69517878  0.92208995     0.03200
C1308       C  0.62543761  0.68536099  0.88532917    -0.17300
H1309       H  0.66307287  0.68522427  0.88331322     0.05300
H1310       H  0.99219767  0.68627900  0.88317539     0.05300
C1311       C  0.54442211  0.87712607  0.85123555     0.03300
C1312       C  0.59347193  0.92613196  0.85123183     0.03200
C1313       C  0.62560685  0.94137793  0.88514490    -0.17300
C1314       C  0.60771696  0.91359002  0.92186505     0.03300
C1315       C  0.55693671  0.86283935  0.92186389     0.03200
C1316       C  0.52913917  0.84498609  0.88514663    -0.17300
H1317       H  0.99126802  0.80713388  0.88313444     0.05300
H1318       H  0.66348792  0.97922092  0.88313460     0.05300
C1319       C  0.80182204  0.87710194  0.85135412     0.03300
C1320       C  0.80139755  0.92571327  0.85127509     0.03200
C1321       C  0.78451307  0.94076396  0.88524276    -0.17300
C1322       C  0.77507024  0.91328902  0.92206330     0.03300
C1323       C  0.77533957  0.86284450  0.92209701     0.03200
C1324       C  0.78518349  0.84509156  0.88533896    -0.17300
H1325       H  0.78534203  0.80746372  0.88332187     0.05300
H1326       H  0.78419289  0.97830847  0.88318450     0.05300
C1327       C  0.59343486  0.92611602  0.64969569     0.03300
C1328       C  0.54438801  0.87710830  0.64969082     0.03200
C1329       C  0.52910668  0.84496862  0.61577955    -0.17300
C1330       C  0.55690499  0.86282344  0.57906311     0.03300
C1331       C  0.60768424  0.91357489  0.57906393     0.03200
C1332       C  0.62557005  0.94136481  0.61578377    -0.17300
H1333       H  0.66344919  0.97920937  0.61779589     0.05300
H1334       H  0.99123723  0.80711485  0.61779167     0.05300
N1335       N  0.60904280  0.55529206  0.68970494    -0.35600
N1336       N  0.60791321  0.62486924  0.75046591    -0.56200
N1337       N  0.60908623  0.55531357  0.81122750    -0.35600
N1338       N  0.60855492  0.98490073  0.75046439    -0.56200
C1339       C  0.59504042  0.58600468  0.66821261     0.27900
C1340       C  0.59527456  0.51052673  0.66820598     0.27900
C1341       C  0.59508907  0.58602898  0.83272299     0.27900
C1342       C  0.59532483  0.51055143  0.83272803     0.27900
C1343       C  0.61999143  0.65700207  0.71837686     0.36600
C1344       C  0.62000802  0.65701081  0.78255190     0.36600
C1345       C  0.62044124  0.96479442  0.71837126     0.36600
C1346       C  0.62045877  0.96480235  0.78255270     0.36600
C1347       C  0.57401922  0.56137855  0.63199736    -0.20900
C1348       C  0.57420801  0.51385886  0.63198205    -0.20900
C1349       C  0.57408015  0.56140872  0.86894175    -0.20900
C1350       C  0.57427005  0.51388962  0.86895602    -0.20900
C1351       C  0.64125496  0.70995684  0.72998655    -0.22000
C1352       C  0.64126449  0.70996229  0.77093666    -0.22000
C1353       C  0.64142479  0.93302007  0.72998163    -0.22000
C1354       C  0.64143461  0.93302397  0.77093373    -0.22000
C1355       C  0.60431203  0.63726536  0.67956542    -0.17300
C1356       C  0.60468668  0.96871388  0.67957818    -0.17300
C1357       C  0.60472534  0.96873189  0.82135099    -0.17300
C1358       C  0.60434777  0.63728412  0.82136731    -0.17300
H1359       H  0.56206169  0.57678881  0.60719999     0.15600
H1360       H  0.56245988  0.48644950  0.60716089     0.15600
H1361       H  0.56212422  0.57681948  0.89374030     0.15600
H1362       H  0.56252438  0.48648158  0.89377732     0.15600
H1363       H  0.65022380  0.74358718  0.71085206     0.13900
H1364       H  0.65024101  0.74359759  0.79006843     0.13900
H1365       H  0.65023529  0.90830579  0.71085264     0.13900
H1366       H  0.65025237  0.90831197  0.79005794     0.13900
H1367       H  0.63204321  0.56693627  0.71550872     0.27100
H1368       H  0.63207383  0.56695156  0.78541733     0.27100
C1369       C  0.54477659  0.66908631  0.64966587     0.03300
C1370       C  0.59339969  0.66869378  0.64959059     0.03200
C1371       C  0.62540551  0.68533909  0.61560440    -0.17300
C1372       C  0.60764180  0.69516049  0.57884395     0.03300
C1373       C  0.55719905  0.69542398  0.57887914     0.03200
C1374       C  0.52971949  0.68596332  0.61569810    -0.17300
H1375       H  0.99217086  0.68626811  0.61775610     0.05300
H1376       H  0.66303912  0.68519923  0.61762167     0.05300
C1377       C  0.80178443  0.87707969  0.64959622     0.03300
C1378       C  0.80136347  0.92569385  0.64967446     0.03200
C1379       C  0.78447829  0.94074278  0.61570552    -0.17300
C1380       C  0.77503709  0.91326740  0.57888406     0.03300
C1381       C  0.77530615  0.86282308  0.57885018     0.03200
C1382       C  0.78514426  0.84506815  0.61560971    -0.17300
H1383       H  0.78530106  0.80743945  0.61762526     0.05300
H1384       H  0.78415956  0.97828808  0.61776239     0.05300
N1385       N  0.91505662  0.55540661  0.68971580    -0.35600
N1386       N  0.84499123  0.98465516  0.75047251    -0.56200
N1387       N  0.91508440  0.55541502  0.81122289    -0.35600
N1388       N  0.98586240  0.62546690  0.75046743    -0.56200
C1389       C  0.88409516  0.51047436  0.66826870     0.27900
C1390       C  0.95998760  0.58635145  0.66826691     0.27900
C1391       C  0.88412662  0.51048576  0.83267201     0.27900
C1392       C  0.96002129  0.58635981  0.83266658     0.27900
C1393       C  0.81287331  0.96432998  0.71837853     0.36600
C1394       C  0.81288598  0.96433904  0.78257312     0.36600
C1395       C  0.50615500  0.65758321  0.71836966     0.36600
C1396       C  0.50617077  0.65758758  0.78256261     0.36600
C1397       C  0.90873563  0.51390658  0.63212486    -0.20900
C1398       C  0.95654023  0.56170014  0.63212418    -0.20900
C1399       C  0.90877514  0.51391963  0.86881233    -0.20900
C1400       C  0.95658259  0.56171026  0.86880773    -0.20900
C1401       C  0.75991098  0.93221316  0.73000103    -0.22000
C1402       C  0.75991922  0.93221897  0.77096181    -0.22000
C1403       C  0.53824110  0.71055910  0.72998370    -0.22000
C1404       C  0.53825018  0.71056206  0.77094475    -0.22000
C1405       C  0.83267345  0.96838261  0.67959594    -0.17300
C1406       C  0.50210042  0.63777330  0.67959062    -0.17300
C1407       C  0.50212970  0.63778202  0.82134120    -0.17300
C1408       C  0.83270012  0.96839689  0.82135129    -0.17300
H1409       H  0.89317349  0.48634929  0.60737001     0.15600
H1410       H  0.98409416  0.57725009  0.60736855     0.15600
H1411       H  0.89321504  0.48636721  0.89356941     0.15600
H1412       H  0.98414292  0.57726105  0.89355958     0.15600
H1413       H  0.72625514  0.90723893  0.71088774     0.13900
H1414       H  0.72627132  0.90724952  0.79008305     0.13900
H1415       H  0.56318158  0.74422076  0.71086346     0.13900
H1416       H  0.56319756  0.74422705  0.79006115     0.13900
H1417       H  0.90353786  0.56694209  0.71545454     0.27100
H1418       H  0.90355669  0.56694840  0.78548796     0.27100
N1419       N  0.91521809  0.86149636  0.68970317    -0.35600
N1420       N  0.98567833  0.86210107  0.75046589    -0.56200
N1421       N  0.91524894  0.86152027  0.81123439    -0.35600
N1422       N  0.84567163  0.86265579  0.75047250    -0.56200
C1423       C  0.95997645  0.87526983  0.66820044     0.27900
C1424       C  0.88448896  0.87547130  0.66820687     0.27900
C1425       C  0.96001258  0.87529767  0.83273186     0.27900
C1426       C  0.88452388  0.87549669  0.83273411     0.27900
C1427       C  0.50574127  0.85016244  0.71837445     0.36600
C1428       C  0.50575810  0.85017479  0.78255346     0.36600
C1429       C  0.81352381  0.85053027  0.71838830     0.36600
C1430       C  0.81353843  0.85053671  0.78256436     0.36600
C1431       C  0.95662433  0.89631203  0.63196983    -0.20900
C1432       C  0.90909697  0.89647808  0.63198435    -0.20900
C1433       C  0.95666893  0.89634600  0.86896249    -0.20900
C1434       C  0.90913950  0.89650826  0.86895410    -0.20900
C1435       C  0.53747060  0.82912899  0.72998510    -0.22000
C1436       C  0.53748043  0.82913571  0.77093670    -0.22000
C1437       C  0.76057281  0.82921920  0.73000768    -0.22000
C1438       C  0.76058218  0.82922315  0.77095796    -0.22000
C1439       C  0.50181250  0.86589592  0.67957759    -0.17300
C1440       C  0.83323333  0.86619050  0.67956816    -0.17300
C1441       C  0.83326394  0.86620946  0.82137954    -0.17300
C1442       C  0.50184393  0.86591831  0.82135091    -0.17300
H1443       H  0.98402513  0.90805849  0.60714540     0.15600
H1444       H  0.89367280  0.90841393  0.60718344     0.15600
H1445       H  0.98407554  0.90809661  0.89378344     0.15600
H1446       H  0.89371747  0.90844136  0.89375840     0.15600
H1447       H  0.56213911  0.82026093  0.71085444     0.13900
H1448       H  0.56215657  0.82027204  0.79006186     0.13900
H1449       H  0.72692903  0.82019853  0.71087729     0.13900
H1450       H  0.72694715  0.82020646  0.79009747     0.13900
H1451       H  0.90359276  0.83851169  0.71551530     0.27100
H1452       H  0.90361457  0.83852958  0.78542480     0.27100
O1453       O  0.71904834  0.65869067  0.01343126    -0.70800
O1454       O  0.77659613  0.78677375  0.95024672    -0.71000
O1455       O  0.81179148  0.75144103  0.01342168    -0.70900
O1456       O  0.68370728  0.69388067  0.95025084    -0.70900
O1457       O  0.64840326  0.72934580  0.98750899    -0.70900
O1458       O  0.77648390  0.78690148  0.05068104    -0.70900
O1459       O  0.74115051  0.82209489  0.98750722    -0.70800
O1460       O  0.68359696  0.69400809  0.05068975    -0.71000
V1461       V  0.74691137  0.72356942  0.98217197     1.35200
V1462       V  0.71328125  0.75721295  0.01876213     1.35200
C1463       C  0.69492101  0.65684129  0.04524952     0.78400
C1464       C  0.76528536  0.82394867  0.95569230     0.78500
C1465       C  0.81364881  0.77558078  0.04523619     0.78400
C1466       C  0.64654722  0.70520977  0.95569239     0.78300
O1467       O  0.98063258  0.69455715  0.05078477    -0.70800
O1468       O  0.55082223  0.82231003  0.98720994    -0.71000
O1469       O  0.98045472  0.78700098  0.05061651    -0.70900
O1470       O  0.55101476  0.72998005  0.98736265    -0.74500
O1471       O  0.97975486  0.69380605  0.95031113    -0.70900
O1472       O  0.90921357  0.75086306  0.01354546    -0.70900
O1473       O  0.97960410  0.78626516  0.95012062    -0.70800
O1474       O  0.90939351  0.65852901  0.01371689    -0.71000
V1475       V  0.51398288  0.75757782  0.01865459     1.35200
V1476       V  0.94624003  0.72325140  0.98226169     1.35200
C1477       C  0.93198099  0.65702842  0.04546304     0.78400
C1478       C  0.52824877  0.82380533  0.95545494     0.78500
C1479       C  0.93175135  0.77532029  0.04526075     0.78400
C1480       C  0.52846080  0.70549384  0.95565998     0.78300
O1481       O  0.68350039  0.99003308  0.05062579    -0.70800
O1482       O  0.74057400  0.91951355  0.98738660    -0.71000
O1483       O  0.77595923  0.98990045  0.05081945    -0.70900
O1484       O  0.64823993  0.91967764  0.98721092    -0.70900
O1485       O  0.68426102  0.99092600  0.95014576    -0.70900
O1486       O  0.81199522  0.56112920  0.01372872    -0.70900
O1487       O  0.77670524  0.99076853  0.95032315    -0.70800
O1488       O  0.71966142  0.56129972  0.01357705    -0.71000
V1489       V  0.71295345  0.95652954  0.01867232     1.35200
V1490       V  0.74726895  0.52428020  0.98228123     1.35200
C1491       C  0.69517987  0.53873720  0.04527864     0.78400
C1492       C  0.76503139  0.94206197  0.95567468     0.78500
C1493       C  0.81349814  0.53855326  0.04548179     0.78400
C1494       C  0.64673722  0.94226807  0.95546508     0.78300
O1495       O  0.64821455  0.91965914  0.51372280    -0.70800
O1496       O  0.77594019  0.98987562  0.45012177    -0.71000
O1497       O  0.74054688  0.91949098  0.51355705    -0.70900
O1498       O  0.68348437  0.99001446  0.45031128    -0.70900
O1499       O  0.71964145  0.56127993  0.48736287    -0.70900
O1500       O  0.77667897  0.99074785  0.55061983    -0.70900
O1501       O  0.81197392  0.56110671  0.48721154    -0.70800
O1502       O  0.68423566  0.99090691  0.55079005    -0.71000
V1503       V  0.71293198  0.95650829  0.48226663     1.35200
V1504       V  0.74724617  0.52425951  0.51865844     1.35200
C1505       C  0.64670956  0.94225058  0.54546766     0.78400
C1506       C  0.81347719  0.53852968  0.45545819     0.78500
C1507       C  0.76500235  0.94204007  0.54527013     0.78400
C1508       C  0.69516146  0.53871801  0.45566071     0.78300
O1509       O  0.55098911  0.72996390  0.51356998    -0.70800
O1510       O  0.98042608  0.78697395  0.45031026    -0.71000
O1511       O  0.55079303  0.82229234  0.51371733    -0.70900
O1512       O  0.98060807  0.69453194  0.45014981    -0.70900
O1513       O  0.90936748  0.65850747  0.48721631    -0.70900
O1514       O  0.97957428  0.78624912  0.55080621    -0.70900
O1515       O  0.90918550  0.75084068  0.48738194    -0.70800
O1516       O  0.97972832  0.69379128  0.55062072    -0.71000
V1517       V  0.51395578  0.75755645  0.48227558     1.35200
V1518       V  0.94621239  0.72323269  0.51866817     1.35200
C1519       C  0.52843461  0.70547878  0.54527240     0.78400
C1520       C  0.93172339  0.77529564  0.45566624     0.78500
C1521       C  0.52821874  0.82378912  0.54547175     0.78400
C1522       C  0.93195677  0.65700374  0.45547205     0.78300
O1523       O  0.68368521  0.69386723  0.55068753    -0.70800
O1524       O  0.81176985  0.75142587  0.48751373    -0.71000
O1525       O  0.77657434  0.78675947  0.55069447    -0.70900
O1526       O  0.71902739  0.65867500  0.48750921    -0.70900
O1527       O  0.68357509  0.69399019  0.45025078    -0.70900
O1528       O  0.74112788  0.82207895  0.51343471    -0.70900
O1529       O  0.77646096  0.78688439  0.45025548    -0.70800
O1530       O  0.64838114  0.72933027  0.51342867    -0.71000
V1531       V  0.74689039  0.72355530  0.51876688     1.35200
V1532       V  0.71325956  0.75719701  0.48217710     1.35200
C1533       C  0.64652358  0.70519395  0.54524442     0.78400
C1534       C  0.81362484  0.77556192  0.45569770     0.78500
C1535       C  0.76525973  0.82393172  0.54525119     0.78400
C1536       C  0.69489881  0.65682333  0.45569177     0.78300
loop_ 
_geom_bond_atom_site_label_1 
_geom_bond_atom_site_label_2 
_geom_bond_distance 
_geom_bond_site_symmetry_2 
_ccdc_geom_bond_type 
C1            C2   1.401       .  A
C1            C6   1.393       .  A
C1           C39   1.488       .  S
C2            C3   1.393       .  A
C2          C105   1.488       .  S
C3            C4   1.420       .  A
C3            H8   1.084       .  S
C4            C5   1.451       .  A
C4          C384   1.511       .  S
C5            C6   1.420       .  A
C5          C356   1.512       .  S
C6          H391   1.084       .  S
H7          C390   1.084       .  S
C9           C10   1.401       .  A
C9           C14   1.393       .  A
C9           C38   1.488       .  S
C10          C11   1.393       .  A
C10         C104   1.488       .  S
C11          C12   1.420       .  A
C11          H16   1.084       .  S
C12          C13   1.451       .  A
C12         C311   1.511       .  S
C13          C14   1.420       .  A
C13         C339   1.512       .  S
C14         H399   1.084       .  S
H15         C398   1.084       .  S
N17          C22   1.348       .  A
N17         C789   1.348       .  A
N17          H49   1.039       .  S
N18          C25   1.347       .  A
N18          C26   1.347       .  A
N19          C24   1.348       .  A
N19         C791   1.348       .  A
N19          H50   1.039       .  S
N20         C411   1.348       .  A
N20         C412   1.347       .  A
C21          C37   1.409       .  A
C21         C797   1.386       .  A
C21         N785   1.348       .  A
C22          C30   1.386       .  A
C22         C422   1.409       .  A
C23          C40   1.409       .  A
C23         C799   1.386       .  A
C23         N787   1.348       .  A
C24          C32   1.386       .  A
C24         C423   1.409       .  A
C25          C37   1.406       .  A
C25          C33   1.378       .  A
C26          C40   1.406       .  A
C26          C34   1.378       .  A
C27          C35   1.378       .  A
C27          C38   1.406       .  A
C27         N404   1.347   1_545  A
C28          C36   1.378       .  A
C28          C39   1.406       .  A
C28         N404   1.347   1_545  A
C29          C30   1.366       .  A
C29         C789   1.386       .  A
C29         H809   1.079   1_455  S
C30          H42   1.079       .  S
C31          C32   1.366       .  A
C31         C791   1.386       .  A
C31         H811   1.079   1_455  S
C32          H44   1.079       .  S
C33          C34   1.380       .  A
C33          H45   1.078       .  S
C34          H46   1.078       .  S
C35          C36   1.380       .  A
C35          H47   1.078       .  S
C36          H48   1.078       .  S
C37          C51   1.488       .  S
C38         C406   1.409   1_545  A
C39         C408   1.409   1_545  A
C40          C59   1.488       .  S
H41         C797   1.079       .  S
H43         C799   1.079       .  S
C51          C52   1.401       .  A
C51          C56   1.393       .  A
C52          C53   1.393       .  A
C52         C137   1.488       .  S
C53          C54   1.420       .  A
C53          H58   1.084       .  S
C54          C55   1.451       .  A
C54         C313   1.511       .  S
C55          C56   1.420       .  A
C55         C327   1.512       .  S
C56          H57   1.084       .  S
C59          C60   1.401       .  A
C59          C64   1.393       .  A
C60          C61   1.393       .  A
C60         C140   1.488       .  S
C61          C62   1.420       .  A
C61          H66   1.084       .  S
C62          C63   1.451       .  A
C62         C382   1.511       .  S
C63          C64   1.420       .  A
C63         C368   1.512       .  S
C64          H65   1.084       .  S
C67          C68   1.401       .  A
C67          C72   1.393       .  A
C67         C103   1.488       .  S
C68          C69   1.393       .  A
C68         C138   1.487       .  S
C69          C70   1.420       .  A
C69         H458   1.084       .  S
C70          C71   1.450       .  A
C70         C341   1.511       .  S
C71          C72   1.420       .  A
C71         C325   1.511       .  S
C72          H73   1.084       .  S
H74         C453   1.084       .  S
C75          C76   1.401       .  A
C75          C80   1.393       .  A
C75         C139   1.487       .  S
C76          C77   1.393       .  A
C76         C106   1.488       .  S
C77          C78   1.420       .  A
C77          H82   1.084       .  S
C78          C79   1.450       .  A
C78         C370   1.511       .  S
C79          C80   1.420       .  A
C79         C354   1.511       .  S
C80         H465   1.084       .  S
H81         C464   1.084       .  S
N83          C88   1.349       .  A
N83          C87   1.348       .  A
N83         H115   1.039       .  S
N84          C91   1.347       .  A
N84          C92   1.347       .  A
N85          C90   1.349       .  A
N85          C89   1.348       .  A
N85         H116   1.039       .  S
N86          C93   1.348       .  A
N86          C94   1.348       .  A
C87          C95   1.386       .  A
C87         C871   1.409   1_455  A
C88         C104   1.409       .  A
C88          C96   1.386       .  A
C89          C97   1.386       .  A
C89         C874   1.409   1_455  A
C90         C105   1.409       .  A
C90          C98   1.386       .  A
C91         C103   1.405       .  A
C91          C99   1.378       .  A
C92         C106   1.405       .  A
C92         C100   1.378       .  A
C93         C101   1.378       .  A
C93         C104   1.405       .  A
C94         C102   1.378       .  A
C94         C105   1.405       .  A
C95          C96   1.366       .  A
C95         H875   1.079   1_455  S
C96         H108   1.079       .  S
C97          C98   1.366       .  A
C97         H877   1.079   1_455  S
C98         H110   1.079       .  S
C99         C100   1.379       .  A
C99         H111   1.078       .  S
C100        H112   1.078       .  S
C101        C102   1.379       .  A
C101        H113   1.078       .  S
C102        H114   1.078       .  S
C103        C855   1.409       .  A
C106        C857   1.409       .  A
H107        C863   1.079       .  S
H109        C865   1.079       .  S
N117        C122   1.348       .  A
N117        C121   1.349       .  A
N117        H149   1.039       .  S
N118        C125   1.348       .  A
N118        C126   1.348       .  A
N119        C124   1.348       .  A
N119        C123   1.349       .  A
N119        H150   1.039       .  S
N120        C511   1.347       .  A
N120        C512   1.347       .  A
C121        C129   1.386       .  A
C121        C137   1.409       .  A
C122        C130   1.386       .  A
C122        C522   1.409       .  A
C123        C131   1.386       .  A
C123        C140   1.409       .  A
C124        C132   1.386       .  A
C124        C523   1.409       .  A
C125        C137   1.405       .  A
C125        C133   1.378       .  A
C126        C140   1.405       .  A
C126        C134   1.378       .  A
C127        C135   1.378       .  A
C127        C138   1.405       .  A
C127        N504   1.347   1_545  A
C128        C136   1.378       .  A
C128        C139   1.405       .  A
C128        N504   1.347   1_545  A
C129        C130   1.366       .  A
C129        H141   1.079       .  S
C130        H142   1.079       .  S
C131        C132   1.366       .  A
C131        H143   1.079       .  S
C132        H144   1.079       .  S
C133        C134   1.379       .  A
C133        H145   1.078       .  S
C134        H146   1.078       .  S
C135        C136   1.379       .  A
C135        H147   1.078       .  S
C136        H148   1.078       .  S
C138        C506   1.409   1_545  A
C139        C508   1.409   1_545  A
C151        C152   1.401       .  A
C151        C156   1.393       .  A
C151        C206   1.488       .  S
C152        C153   1.393       .  A
C152        C255   1.488       .  S
C153        C154   1.420       .  A
C153        H926   1.084   1_455  S
C154        C155   1.451       .  A
C154        C328   1.512       .  S
C155        C156   1.420       .  A
C155        C314   1.511       .  S
C156        H157   1.084       .  S
H158        C921   1.084       .  S
C159        C160   1.401       .  A
C159        C164   1.393       .  A
C159        C290   1.488       .  S
C160        C161   1.393       .  A
C160        C205   1.488       .  S
C161        C162   1.420       .  A
C161        H166   1.084       .  S
C162        C163   1.450       .  A
C162        C342   1.511       .  S
C163        C164   1.420       .  A
C163        C326   1.511       .  S
C164        H933   1.084   1_455  S
H165        C932   1.084       .  S
C167        C168   1.401       .  A
C167        C172   1.393       .  A
C167        C289   1.488       .  S
C168        C169   1.393       .  A
C168        C256   1.488       .  S
C169        C170   1.420       .  A
C169        H174   1.084       .  S
C170        C171   1.451       .  A
C170        C340   1.512       .  S
C171        C172   1.420       .  A
C171        C312   1.511       .  S
C172        H173   1.084       .  S
C175        C176   1.401       .  A
C175        C180   1.393       .  A
C175        C204   1.488       .  S
C176        C177   1.393       .  A
C176        C287   1.488       .  S
C177        C178   1.420       .  A
C177        H950   1.084   1_455  S
C178        C179   1.450       .  A
C178        C369   1.511       .  S
C179        C180   1.420       .  A
C179        C353   1.511       .  S
C180        H181   1.084       .  S
H182        C945   1.084       .  S
N183        C188   1.348       .  A
N183        C187   1.349       .  A
N183        H215   1.039       .  S
N184        C191   1.348       .  A
N184        C192   1.348       .  A
N185        C190   1.348       .  A
N185        C189   1.349       .  A
N185        H216   1.039       .  S
N186        C193   1.347       .  A
N186        C194   1.347       .  A
C187        C195   1.386       .  A
C187        C203   1.409       .  A
C188        C196   1.386       .  A
C188        C588   1.409   1_545  A
C189        C197   1.386       .  A
C189        C206   1.409       .  A
C190        C198   1.386       .  A
C190        C589   1.409   1_545  A
C191        C203   1.405       .  A
C191        C199   1.378       .  A
C192        C206   1.405       .  A
C192        C200   1.378       .  A
C193        C201   1.378       .  A
C193        C204   1.405       .  A
C194        C202   1.378       .  A
C194        C205   1.405       .  A
C195        C196   1.366       .  A
C195        H207   1.079       .  S
C196        H208   1.079   1_545  S
C197        C198   1.366       .  A
C197        H209   1.079       .  S
C198        H210   1.079   1_545  S
C199        C200   1.379       .  A
C199        H211   1.078       .  S
C200        H212   1.078       .  S
C201        C202   1.379       .  A
C201        H213   1.078       .  S
C202        H214   1.078       .  S
C203        C218   1.488       .  S
C204        C572   1.409       .  A
C205        C574   1.409       .  A
C217        C218   1.401       .  A
C217        C222   1.393       .  A
C217        C254   1.488       .  S
C218        C219   1.393       .  A
C219        C220   1.420       .  A
C219        H224   1.084       .  S
C220        C221   1.451       .  A
C220        C381   1.511       .  S
C221        C222   1.420       .  A
C221        C367   1.512       .  S
C222        H991   1.084   1_455  S
H223        C990   1.084       .  S
C225        C226   1.401       .  A
C225        C230   1.393       .  A
C225        C288   1.488       .  S
C226        C227   1.393       .  A
C226        C253   1.488       .  S
C227        C228   1.420       .  A
C227        H232   1.084       .  S
C228        C229   1.451       .  A
C228        C355   1.512       .  S
C229        C230   1.420       .  A
C229        C383   1.511       .  S
C230        H231   1.084       .  S
N233        C238   1.348       .  A
N233        C237   1.348       .  A
N233        H265   1.039       .  S
N234        C241   1.348       .  A
N234        C242   1.347       .  A
N235        C240   1.348       .  A
N235        C239   1.348       .  A
N235        H266   1.039       .  S
N236       C1011   1.347       .  A
N236       C1012   1.348       .  A
C237        C245   1.386       .  A
C237        C637   1.409   1_545  A
C238        C246   1.386       .  A
C238       C1022   1.409       .  A
C239        C247   1.386       .  A
C239        C640   1.409   1_545  A
C240        C248   1.386       .  A
C240       C1023   1.409       .  A
C241        C253   1.406       .  A
C241        C249   1.378       .  A
C242        C256   1.406       .  A
C242        C250   1.378       .  A
C243        C251   1.378       .  A
C243        C254   1.406       .  A
C243       N1004   1.347   1_455  A
C244        C252   1.378       .  A
C244        C255   1.406       .  A
C244       N1004   1.347   1_455  A
C245        C246   1.366       .  A
C245        H257   1.079   1_545  S
C246        H258   1.079       .  S
C247        C248   1.366       .  A
C247        H259   1.079   1_545  S
C248        H260   1.079       .  S
C249        C250   1.380       .  A
C249        H261   1.078       .  S
C250        H262   1.078       .  S
C251        C252   1.380       .  A
C251        H263   1.078       .  S
C252        H264   1.078       .  S
C253        C621   1.409       .  A
C254       C1006   1.409   1_455  A
C255       C1008   1.409   1_455  A
C256        C623   1.409       .  A
N267        C272   1.349       .  A
N267        C271   1.348       .  A
N267        H299   1.039       .  S
N268       C1043   1.347       .  A
N268       C1044   1.347       .  A
N269        C274   1.348       .  A
N269        C273   1.348       .  A
N269        H300   1.039       .  S
N270        C277   1.348       .  A
N270        C278   1.348       .  A
C271        C279   1.386       .  A
C271       C1055   1.409       .  A
C272        C288   1.409       .  A
C272        C280   1.386       .  A
C273        C281   1.386       .  A
C273       C1058   1.409       .  A
C274        C289   1.409       .  A
C274        C282   1.386       .  A
C275        C287   1.405       .  A
C275        C283   1.378       .  A
C275       N1036   1.347   1_455  A
C276        C290   1.405       .  A
C276        C284   1.378       .  A
C276       N1036   1.347   1_455  A
C277        C285   1.378       .  A
C277        C288   1.405       .  A
C278        C286   1.378       .  A
C278        C289   1.405       .  A
C279        C280   1.366       .  A
C279        H291   1.079       .  S
C280        H292   1.079       .  S
C281        C282   1.366       .  A
C281        H293   1.079       .  S
C282        H294   1.079       .  S
C283        C284   1.379       .  A
C283        H295   1.078       .  S
C284        H296   1.078       .  S
C285        C286   1.379       .  A
C285        H297   1.078       .  S
C286        H298   1.078       .  S
C287       C1039   1.409   1_455  A
C290       C1041   1.409   1_455  A
O301        V309   1.927   1_554  S
O301        C311   1.262       .  A
O302        V309   1.901       .  S
O302        C312   1.275       .  A
O303        V309   1.927   1_554  S
O303        C313   1.262       .  A
O304        V309   1.901       .  S
O304        C314   1.275       .  A
O305        V310   1.927   1_556  S
O305        C314   1.262       .  A
O306        V310   1.901       .  S
O306        C313   1.275       .  A
O307        V310   1.927   1_556  S
O307        C312   1.262       .  A
O308        V310   1.901       .  S
O308        C311   1.275       .  A
V309        V310   2.078   1_556  T
O315       V1091   1.900       .  S
O315        C325   1.275       .  A
O316        V323   1.926   1_556  S
O316        C326   1.262       .  A
O317       V1091   1.901       .  S
O317        C327   1.275       .  A
O318        V323   1.927   1_556  S
O318        C328   1.263       .  A
O319        V324   1.901       .  S
O319       C1096   1.275       .  A
O320        V324   1.927   1_554  S
O320        C327   1.263       .  A
O321        V324   1.900       .  S
O321       C1094   1.275       .  A
O322        V324   1.926   1_554  S
O322        C325   1.262       .  A
V323       O1083   1.900   1_455  S
V323       O1085   1.901   1_455  S
V323       V1092   2.078   1_454  T
V324       V1091   2.078   1_556  T
C326       O1089   1.275   1_455  A
C328       O1087   1.275   1_455  A
O329        V337   1.901       .  S
O329        C723   1.275       .  A
O330        V337   1.927   1_556  S
O330        C340   1.263       .  A
O331        V337   1.900       .  S
O331        C725   1.275       .  A
O332        V337   1.926   1_556  S
O332        C342   1.262       .  A
O333        V722   1.900       .  S
O333        C342   1.275       .  A
O334        V338   1.926   1_554  S
O334        C341   1.262       .  A
O335        V722   1.901       .  S
O335        C340   1.275       .  A
O336        V338   1.927   1_554  S
O336        C339   1.263       .  A
V337        V722   2.078   1_554  T
V338        O717   1.900   1_545  S
V338        O719   1.901   1_545  S
V338        V721   2.078   1_546  T
C339        O713   1.275   1_545  A
C341        O715   1.275   1_545  A
O343        V351   1.926       .  S
O343        C353   1.262       .  A
O344        V351   1.900       .  S
O344        C738   1.275       .  A
O345        V351   1.927       .  S
O345        C355   1.263       .  A
O346        V351   1.901       .  S
O346        C740   1.275       .  A
O347        V352   1.927       .  S
O347        C356   1.263       .  A
O348        V736   1.901       .  S
O348        C355   1.275       .  A
O349        V352   1.926       .  S
O349        C354   1.262       .  A
O350        V736   1.900       .  S
O350        C353   1.275       .  A
V351        V736   2.078       .  T
V352        O732   1.901   1_545  S
V352        O734   1.900   1_545  S
V352        V735   2.078   1_545  T
C354        O728   1.275   1_545  A
C356        O730   1.275   1_545  A
O357        V365   1.927       .  S
O357        C367   1.263       .  A
O358       V1133   1.901       .  S
O358        C368   1.275       .  A
O359        V365   1.926       .  S
O359        C369   1.262       .  A
O360       V1133   1.900       .  S
O360        C370   1.275       .  A
O361        V366   1.926       .  S
O361        C370   1.262       .  A
O362        V366   1.900       .  S
O362       C1137   1.275       .  A
O363        V366   1.927       .  S
O363        C368   1.263       .  A
O364        V366   1.901       .  S
O364       C1135   1.275       .  A
V365       O1126   1.901   1_455  S
V365       O1128   1.900   1_455  S
V365       V1134   2.078   1_455  T
V366       V1133   2.078       .  T
C367       O1132   1.275   1_455  A
C369       O1130   1.275   1_455  A
O371        V379   1.901       .  S
O371        C381   1.275       .  A
O372        V379   1.927       .  S
O372        C382   1.262       .  A
O373        V379   1.901       .  S
O373        C383   1.275       .  A
O374        V379   1.926       .  S
O374        C384   1.262       .  A
O375        V380   1.901       .  S
O375        C384   1.275       .  A
O376        V380   1.927       .  S
O376        C383   1.262       .  A
O377        V380   1.901       .  S
O377        C382   1.275       .  A
O378        V380   1.926       .  S
O378        C381   1.262       .  A
V379        V380   2.078       .  T
C385        C386   1.401       .  A
C385        C390   1.393       .  A
C385        C423   1.488       .  S
C386        C387   1.393       .  A
C386        C489   1.488       .  S
C387        C388   1.420       .  A
C387        H392   1.084       .  S
C388        C389   1.451       .  A
C388        C768   1.511       .  S
C389        C390   1.420       .  A
C389        C740   1.512       .  S
C393        C394   1.401       .  A
C393        C398   1.393       .  A
C393        C422   1.488       .  S
C394        C395   1.393       .  A
C394        C488   1.488       .  S
C395        C396   1.420       .  A
C395        H400   1.084       .  S
C396        C397   1.451       .  A
C396        C695   1.511       .  S
C397        C398   1.420       .  A
C397        C723   1.512       .  S
N401        C406   1.348       .  A
N401       C1173   1.348       .  A
N401        H433   1.039       .  S
N402        C409   1.347       .  A
N402        C410   1.348       .  A
N403        C408   1.348       .  A
N403       C1175   1.348       .  A
N403        H434   1.039       .  S
C405       C1181   1.386       .  A
C405        C421   1.409       .  A
C405       N1169   1.348       .  A
C406        C414   1.386       .  A
C407       C1183   1.386       .  A
C407        C424   1.409       .  A
C407       N1171   1.348       .  A
C408        C416   1.386       .  A
C409        C421   1.406       .  A
C409        C417   1.378       .  A
C410        C424   1.406       .  A
C410        C418   1.378       .  A
C411        C419   1.378       .  A
C411        C422   1.406       .  A
C412        C420   1.378       .  A
C412        C423   1.406       .  A
C413       C1173   1.386       .  A
C413        C414   1.366       .  A
C413       H1193   1.079   1_455  S
C414        H426   1.079       .  S
C415       C1175   1.386       .  A
C415        C416   1.366       .  A
C415       H1195   1.079   1_455  S
C416        H428   1.079       .  S
C417        C418   1.380       .  A
C417        H429   1.078       .  S
C418        H430   1.078       .  S
C419        C420   1.380       .  A
C419        H431   1.078       .  S
C420        H432   1.078       .  S
C421        C435   1.488       .  S
C424        C443   1.488       .  S
H425       C1181   1.079       .  S
H427       C1183   1.079       .  S
C435        C436   1.401       .  A
C435        C440   1.393       .  A
C436        C437   1.393       .  A
C436        C521   1.488       .  S
C437        C438   1.420       .  A
C437        H442   1.084       .  S
C438        C439   1.451       .  A
C438        C697   1.511       .  S
C439        C440   1.420       .  A
C439        C711   1.512       .  S
C440        H441   1.084       .  S
C443        C444   1.401       .  A
C443        C448   1.393       .  A
C444        C445   1.393       .  A
C444        C524   1.488       .  S
C445        C446   1.420       .  A
C445        H450   1.084       .  S
C446        C447   1.451       .  A
C446        C766   1.511       .  S
C447        C448   1.420       .  A
C447        C752   1.512       .  S
C448        H449   1.084       .  S
C451        C452   1.401       .  A
C451        C456   1.393       .  A
C451        C487   1.488       .  S
C452        C453   1.393       .  A
C452        C522   1.487       .  S
C453        C454   1.420       .  A
C454        C455   1.450       .  A
C454        C725   1.511       .  S
C455        C456   1.420       .  A
C455        C709   1.511       .  S
C456        H457   1.084       .  S
C459        C460   1.401       .  A
C459        C464   1.393       .  A
C459        C523   1.487       .  S
C460        C461   1.393       .  A
C460        C490   1.488       .  S
C461        C462   1.420       .  A
C461        H466   1.084       .  S
C462        C463   1.450       .  A
C462        C754   1.511       .  S
C463        C464   1.420       .  A
C463        C738   1.511       .  S
N467        C472   1.349       .  A
N467        C471   1.348       .  A
N467        H499   1.039       .  S
N468        C475   1.347       .  A
N468        C476   1.347       .  A
N469        C474   1.349       .  A
N469        C473   1.348       .  A
N469        H500   1.039       .  S
N470        C477   1.348       .  A
N470        C478   1.348       .  A
C471        C479   1.386       .  A
C471       C1255   1.409   1_455  A
C472        C488   1.409       .  A
C472        C480   1.386       .  A
C473        C481   1.386       .  A
C473       C1258   1.409   1_455  A
C474        C489   1.409       .  A
C474        C482   1.386       .  A
C475        C487   1.405       .  A
C475        C483   1.378       .  A
C476        C490   1.405       .  A
C476        C484   1.378       .  A
C477        C485   1.378       .  A
C477        C488   1.405       .  A
C478        C486   1.378       .  A
C478        C489   1.405       .  A
C479        C480   1.366       .  A
C479       H1259   1.079   1_455  S
C480        H492   1.079       .  S
C481        C482   1.366       .  A
C481       H1261   1.079   1_455  S
C482        H494   1.079       .  S
C483        C484   1.379       .  A
C483        H495   1.078       .  S
C484        H496   1.078       .  S
C485        C486   1.379       .  A
C485        H497   1.078       .  S
C486        H498   1.078       .  S
C487       C1239   1.409       .  A
C490       C1241   1.409       .  A
H491       C1247   1.079       .  S
H493       C1249   1.079       .  S
N501        C506   1.348       .  A
N501        C505   1.348       .  A
N501        H533   1.039       .  S
N502        C509   1.348       .  A
N502        C510   1.348       .  A
N503        C508   1.348       .  A
N503        C507   1.349       .  A
N503        H534   1.039       .  S
C505        C513   1.386       .  A
C505        C521   1.409       .  A
C506        C514   1.386       .  A
C507        C515   1.386       .  A
C507        C524   1.409       .  A
C508        C516   1.386       .  A
C509        C521   1.405       .  A
C509        C517   1.378       .  A
C510        C524   1.405       .  A
C510        C518   1.378       .  A
C511        C519   1.378       .  A
C511        C522   1.405       .  A
C512        C520   1.378       .  A
C512        C523   1.405       .  A
C513        C514   1.366       .  A
C513        H525   1.079       .  S
C514        H526   1.079       .  S
C515        C516   1.366       .  A
C515        H527   1.079       .  S
C516        H528   1.079       .  S
C517        C518   1.379       .  A
C517        H529   1.078       .  S
C518        H530   1.078       .  S
C519        C520   1.379       .  A
C519        H531   1.078       .  S
C520        H532   1.078       .  S
C535        C536   1.401       .  A
C535        C540   1.393       .  A
C535        C590   1.488       .  S
C536        C537   1.393       .  A
C536        C639   1.488       .  S
C537        C538   1.420       .  A
C537       H1310   1.084   1_455  S
C538        C539   1.451       .  A
C538        C712   1.512       .  S
C539        C540   1.420       .  A
C539        C698   1.511       .  S
C540        H541   1.084       .  S
H542       C1305   1.084       .  S
C543        C544   1.401       .  A
C543        C548   1.393       .  A
C543        C674   1.488       .  S
C544        C545   1.393       .  A
C544        C589   1.488       .  S
C545        C546   1.420       .  A
C545        H550   1.084       .  S
C546        C547   1.450       .  A
C546        C726   1.511       .  S
C547        C548   1.420       .  A
C547        C710   1.511       .  S
C548       H1317   1.084   1_455  S
H549       C1316   1.084       .  S
C551        C552   1.401       .  A
C551        C556   1.393       .  A
C551        C673   1.488       .  S
C552        C553   1.393       .  A
C552        C640   1.488       .  S
C553        C554   1.420       .  A
C553        H558   1.084       .  S
C554        C555   1.451       .  A
C554        C724   1.512       .  S
C555        C556   1.420       .  A
C555        C696   1.511       .  S
C556        H557   1.084       .  S
C559        C560   1.401       .  A
C559        C564   1.393       .  A
C559        C588   1.488       .  S
C560        C561   1.393       .  A
C560        C671   1.487       .  S
C561        C562   1.420       .  A
C561       H1334   1.084   1_455  S
C562        C563   1.450       .  A
C562        C753   1.511       .  S
C563        C564   1.420       .  A
C563        C737   1.511       .  S
C564        H565   1.084       .  S
H566       C1329   1.084       .  S
N567        C572   1.348       .  A
N567        C571   1.349       .  A
N567        H599   1.039       .  S
N568        C575   1.348       .  A
N568        C576   1.348       .  A
N569        C574   1.348       .  A
N569        C573   1.349       .  A
N569        H600   1.039       .  S
N570        C577   1.347       .  A
N570        C578   1.347       .  A
C571        C579   1.386       .  A
C571        C587   1.409       .  A
C572        C580   1.386       .  A
C573        C581   1.386       .  A
C573        C590   1.409       .  A
C574        C582   1.386       .  A
C575        C587   1.405       .  A
C575        C583   1.378       .  A
C576        C590   1.405       .  A
C576        C584   1.378       .  A
C577        C585   1.378       .  A
C577        C588   1.405       .  A
C578        C586   1.378       .  A
C578        C589   1.405       .  A
C579        C580   1.366       .  A
C579        H591   1.079       .  S
C580        H592   1.079       .  S
C581        C582   1.366       .  A
C581        H593   1.079       .  S
C582        H594   1.079       .  S
C583        C584   1.379       .  A
C583        H595   1.078       .  S
C584        H596   1.078       .  S
C585        C586   1.379       .  A
C585        H597   1.078       .  S
C586        H598   1.078       .  S
C587        C602   1.488       .  S
C601        C602   1.401       .  A
C601        C606   1.393       .  A
C601        C638   1.488       .  S
C602        C603   1.393       .  A
C603        C604   1.420       .  A
C603        H608   1.084       .  S
C604        C605   1.451       .  A
C604        C765   1.511       .  S
C605        C606   1.420       .  A
C605        C751   1.512       .  S
C606       H1375   1.084   1_455  S
H607       C1374   1.084       .  S
C609        C610   1.401       .  A
C609        C614   1.393       .  A
C609        C672   1.488       .  S
C610        C611   1.393       .  A
C610        C637   1.488       .  S
C611        C612   1.420       .  A
C611        H616   1.084       .  S
C612        C613   1.451       .  A
C612        C739   1.512       .  S
C613        C614   1.420       .  A
C613        C767   1.511       .  S
C614        H615   1.084       .  S
N617        C622   1.348       .  A
N617        C621   1.348       .  A
N617        H649   1.039       .  S
N618        C625   1.348       .  A
N618        C626   1.348       .  A
N619        C624   1.348       .  A
N619        C623   1.348       .  A
N619        H650   1.039       .  S
N620       C1395   1.347       .  A
N620       C1396   1.347       .  A
C621        C629   1.386       .  A
C622       C1406   1.409       .  A
C622        C630   1.386       .  A
C623        C631   1.386       .  A
C624       C1407   1.409       .  A
C624        C632   1.386       .  A
C625        C637   1.406       .  A
C625        C633   1.378       .  A
C626        C640   1.406       .  A
C626        C634   1.378       .  A
C627        C635   1.378       .  A
C627        C638   1.406       .  A
C627       N1388   1.347   1_455  A
C628        C636   1.378       .  A
C628        C639   1.406       .  A
C628       N1388   1.347   1_455  A
C629        C630   1.366       .  A
C629        H641   1.079       .  S
C630        H642   1.079       .  S
C631        C632   1.366       .  A
C631        H643   1.079       .  S
C632        H644   1.079       .  S
C633        C634   1.380       .  A
C633        H645   1.078       .  S
C634        H646   1.078       .  S
C635        C636   1.380       .  A
C635        H647   1.078       .  S
C636        H648   1.078       .  S
C638       C1390   1.409   1_455  A
C639       C1392   1.409   1_455  A
N651        C656   1.349       .  A
N651        C655   1.348       .  A
N651        H683   1.039       .  S
N652       C1427   1.347       .  A
N652       C1428   1.347       .  A
N653        C658   1.348       .  A
N653        C657   1.348       .  A
N653        H684   1.039       .  S
N654        C661   1.348       .  A
N654        C662   1.348       .  A
C655        C663   1.386       .  A
C655       C1439   1.409       .  A
C656        C672   1.409       .  A
C656        C664   1.386       .  A
C657        C665   1.386       .  A
C657       C1442   1.409       .  A
C658        C673   1.409       .  A
C658        C666   1.386       .  A
C659        C671   1.405       .  A
C659        C667   1.378       .  A
C659       N1420   1.347   1_455  A
C660        C674   1.405       .  A
C660        C668   1.378       .  A
C660       N1420   1.347   1_455  A
C661        C669   1.378       .  A
C661        C672   1.405       .  A
C662        C670   1.378       .  A
C662        C673   1.405       .  A
C663        C664   1.366       .  A
C663        H675   1.079       .  S
C664        H676   1.079       .  S
C665        C666   1.366       .  A
C665        H677   1.079       .  S
C666        H678   1.079       .  S
C667        C668   1.379       .  A
C667        H679   1.078       .  S
C668        H680   1.078       .  S
C669        C670   1.379       .  A
C669        H681   1.078       .  S
C670        H682   1.078       .  S
C671       C1423   1.409   1_455  A
C674       C1425   1.409   1_455  A
O685        V693   1.927   1_554  S
O685        C695   1.262       .  A
O686        V693   1.901       .  S
O686        C696   1.275       .  A
O687        V693   1.927   1_554  S
O687        C697   1.262       .  A
O688        V693   1.901       .  S
O688        C698   1.275       .  A
O689        V694   1.927   1_556  S
O689        C698   1.262       .  A
O690        V694   1.901       .  S
O690        C697   1.275       .  A
O691        V694   1.927   1_556  S
O691        C696   1.262       .  A
O692        V694   1.901       .  S
O692        C695   1.275       .  A
V693        V694   2.078   1_556  T
O699       V1475   1.900       .  S
O699        C709   1.275       .  A
O700        V707   1.926   1_556  S
O700        C710   1.262       .  A
O701       V1475   1.901       .  S
O701        C711   1.275       .  A
O702        V707   1.927   1_556  S
O702        C712   1.263       .  A
O703        V708   1.901       .  S
O703       C1480   1.275       .  A
O704        V708   1.927   1_554  S
O704        C711   1.263       .  A
O705        V708   1.900       .  S
O705       C1478   1.275       .  A
O706        V708   1.926   1_554  S
O706        C709   1.262       .  A
V707       O1467   1.900   1_455  S
V707       O1469   1.901   1_455  S
V707       V1476   2.078   1_454  T
V708       V1475   2.078   1_556  T
C710       O1473   1.275   1_455  A
C712       O1471   1.275   1_455  A
O713        V721   1.901       .  S
O714        V721   1.927   1_556  S
O714        C724   1.263       .  A
O715        V721   1.900       .  S
O716        V721   1.926   1_556  S
O716        C726   1.262       .  A
O717        C726   1.275       .  A
O718        V722   1.926   1_554  S
O718        C725   1.262       .  A
O719        C724   1.275       .  A
O720        V722   1.927   1_554  S
O720        C723   1.263       .  A
O727        V735   1.926       .  S
O727        C737   1.262       .  A
O728        V735   1.900       .  S
O729        V735   1.927       .  S
O729        C739   1.263       .  A
O730        V735   1.901       .  S
O731        V736   1.927       .  S
O731        C740   1.263       .  A
O732        C739   1.275       .  A
O733        V736   1.926       .  S
O733        C738   1.262       .  A
O734        C737   1.275       .  A
O741        V749   1.927       .  S
O741        C751   1.263       .  A
O742       V1517   1.901       .  S
O742        C752   1.275       .  A
O743        V749   1.926       .  S
O743        C753   1.262       .  A
O744       V1517   1.900       .  S
O744        C754   1.275       .  A
O745        V750   1.926       .  S
O745        C754   1.262       .  A
O746        V750   1.900       .  S
O746       C1521   1.275       .  A
O747        V750   1.927       .  S
O747        C752   1.263       .  A
O748        V750   1.901       .  S
O748       C1519   1.275       .  A
V749       O1510   1.901   1_455  S
V749       O1512   1.900   1_455  S
V749       V1518   2.078   1_455  T
V750       V1517   2.078       .  T
C751       O1516   1.275   1_455  A
C753       O1514   1.275   1_455  A
O755        V763   1.901       .  S
O755        C765   1.275       .  A
O756        V763   1.927       .  S
O756        C766   1.262       .  A
O757        V763   1.901       .  S
O757        C767   1.275       .  A
O758        V763   1.927       .  S
O758        C768   1.262       .  A
O759        V764   1.901       .  S
O759        C768   1.275       .  A
O760        V764   1.927       .  S
O760        C767   1.262       .  A
O761        V764   1.901       .  S
O761        C766   1.275       .  A
O762        V764   1.927       .  S
O762        C765   1.262       .  A
V763        V764   2.078       .  T
C769        C770   1.401       .  A
C769        C774   1.393       .  A
C769        C807   1.488       .  S
C770        C771   1.393       .  A
C770        C873   1.488       .  S
C771        C772   1.420       .  A
C771        H776   1.084       .  S
C772        C773   1.451       .  A
C772       C1152   1.511       .  S
C773        C774   1.420       .  A
C773       C1124   1.512       .  S
C774       H1159   1.084       .  S
H775       C1158   1.084       .  S
C777        C778   1.401       .  A
C777        C782   1.393       .  A
C777        C806   1.488       .  S
C778        C779   1.393       .  A
C778        C872   1.488       .  S
C779        C780   1.420       .  A
C779        H784   1.084       .  S
C780        C781   1.451       .  A
C780       C1079   1.511       .  S
C781        C782   1.420       .  A
C781       C1107   1.512       .  S
C782       H1167   1.084       .  S
H783       C1166   1.084       .  S
N785        C790   1.348       .  A
N785        H817   1.039       .  S
N786        C793   1.347       .  A
N786        C794   1.347       .  A
N787        C792   1.348       .  A
N787        H818   1.039       .  S
N788       C1179   1.348       .  A
N788       C1180   1.347       .  A
C789        C805   1.409   1_455  A
C790       C1190   1.409       .  A
C790        C798   1.386       .  A
C791        C808   1.409   1_455  A
C792       C1191   1.409       .  A
C792        C800   1.386       .  A
C793        C805   1.406       .  A
C793        C801   1.378       .  A
C794        C808   1.406       .  A
C794        C802   1.378       .  A
C795        C803   1.378       .  A
C795        C806   1.406       .  A
C795       N1172   1.347   1_545  A
C796        C804   1.378       .  A
C796        C807   1.406       .  A
C796       N1172   1.347   1_545  A
C797        C798   1.366       .  A
C798        H810   1.079       .  S
C799        C800   1.366       .  A
C800        H812   1.079       .  S
C801        C802   1.380       .  A
C801        H813   1.078       .  S
C802        H814   1.078       .  S
C803        C804   1.380       .  A
C803        H815   1.078       .  S
C804        H816   1.078       .  S
C805        C819   1.488       .  S
C806       C1174   1.409   1_545  A
C807       C1176   1.409   1_545  A
C808        C827   1.488       .  S
C819        C820   1.401       .  A
C819        C824   1.393       .  A
C820        C821   1.393       .  A
C820        C905   1.488       .  S
C821        C822   1.420       .  A
C821        H826   1.084       .  S
C822        C823   1.451       .  A
C822       C1081   1.511       .  S
C823        C824   1.420       .  A
C823       C1095   1.512       .  S
C824        H825   1.084       .  S
C827        C828   1.401       .  A
C827        C832   1.393       .  A
C828        C829   1.393       .  A
C828        C908   1.488       .  S
C829        C830   1.420       .  A
C829        H834   1.084       .  S
C830        C831   1.451       .  A
C830       C1150   1.511       .  S
C831        C832   1.420       .  A
C831       C1136   1.512       .  S
C832        H833   1.084       .  S
C835        C836   1.401       .  A
C835        C840   1.393       .  A
C835        C871   1.488       .  S
C836        C837   1.393       .  A
C836        C906   1.487       .  S
C837        C838   1.420       .  A
C837       H1226   1.084       .  S
C838        C839   1.450       .  A
C838       C1109   1.511       .  S
C839        C840   1.420       .  A
C839       C1093   1.511       .  S
C840        H841   1.084       .  S
H842       C1221   1.084       .  S
C843        C844   1.401       .  A
C843        C848   1.393       .  A
C843        C907   1.487       .  S
C844        C845   1.393       .  A
C844        C874   1.488       .  S
C845        C846   1.420       .  A
C845        H850   1.084       .  S
C846        C847   1.450       .  A
C846       C1138   1.511       .  S
C847        C848   1.420       .  A
C847       C1122   1.511       .  S
C848       H1233   1.084       .  S
H849       C1232   1.084       .  S
N851        C856   1.349       .  A
N851        C855   1.348       .  A
N851        H883   1.039       .  S
N852        C859   1.347       .  A
N852        C860   1.347       .  A
N853        C858   1.349       .  A
N853        C857   1.348       .  A
N853        H884   1.039       .  S
N854        C861   1.348       .  A
N854        C862   1.348       .  A
C855        C863   1.386       .  A
C856        C872   1.409       .  A
C856        C864   1.386       .  A
C857        C865   1.386       .  A
C858        C873   1.409       .  A
C858        C866   1.386       .  A
C859        C871   1.405       .  A
C859        C867   1.378       .  A
C860        C874   1.405       .  A
C860        C868   1.378       .  A
C861        C869   1.378       .  A
C861        C872   1.405       .  A
C862        C870   1.378       .  A
C862        C873   1.405       .  A
C863        C864   1.366       .  A
C864        H876   1.079       .  S
C865        C866   1.366       .  A
C866        H878   1.079       .  S
C867        C868   1.379       .  A
C867        H879   1.078       .  S
C868        H880   1.078       .  S
C869        C870   1.379       .  A
C869        H881   1.078       .  S
C870        H882   1.078       .  S
N885        C890   1.348       .  A
N885        C889   1.349       .  A
N885        H917   1.039       .  S
N886        C893   1.348       .  A
N886        C894   1.348       .  A
N887        C892   1.348       .  A
N887        C891   1.349       .  A
N887        H918   1.039       .  S
N888       C1279   1.347       .  A
N888       C1280   1.347       .  A
C889        C897   1.386       .  A
C889        C905   1.409       .  A
C890       C1290   1.409       .  A
C890        C898   1.386       .  A
C891        C899   1.386       .  A
C891        C908   1.409       .  A
C892       C1291   1.409       .  A
C892        C900   1.386       .  A
C893        C905   1.405       .  A
C893        C901   1.378       .  A
C894        C908   1.405       .  A
C894        C902   1.378       .  A
C895        C903   1.378       .  A
C895        C906   1.405       .  A
C895       N1272   1.347   1_545  A
C896        C904   1.378       .  A
C896        C907   1.405       .  A
C896       N1272   1.347   1_545  A
C897        C898   1.366       .  A
C897        H909   1.079       .  S
C898        H910   1.079       .  S
C899        C900   1.366       .  A
C899        H911   1.079       .  S
C900        H912   1.079       .  S
C901        C902   1.379       .  A
C901        H913   1.078       .  S
C902        H914   1.078       .  S
C903        C904   1.379       .  A
C903        H915   1.078       .  S
C904        H916   1.078       .  S
C906       C1274   1.409   1_545  A
C907       C1276   1.409   1_545  A
C919        C920   1.401       .  A
C919        C924   1.393       .  A
C919        C974   1.488       .  S
C920        C921   1.393       .  A
C920       C1023   1.488       .  S
C921        C922   1.420       .  A
C922        C923   1.451       .  A
C922       C1096   1.512       .  S
C923        C924   1.420       .  A
C923       C1082   1.511       .  S
C924        H925   1.084       .  S
C927        C928   1.401       .  A
C927        C932   1.393       .  A
C927       C1058   1.488       .  S
C928        C929   1.393       .  A
C928        C973   1.488       .  S
C929        C930   1.420       .  A
C929        H934   1.084       .  S
C930        C931   1.450       .  A
C930       C1110   1.511       .  S
C931        C932   1.420       .  A
C931       C1094   1.511       .  S
C935        C936   1.401       .  A
C935        C940   1.393       .  A
C935       C1057   1.488       .  S
C936        C937   1.393       .  A
C936       C1024   1.488       .  S
C937        C938   1.420       .  A
C937        H942   1.084       .  S
C938        C939   1.451       .  A
C938       C1108   1.512       .  S
C939        C940   1.420       .  A
C939       C1080   1.511       .  S
C940        H941   1.084       .  S
C943        C944   1.401       .  A
C943        C948   1.393       .  A
C943        C972   1.488       .  S
C944        C945   1.393       .  A
C944       C1055   1.488       .  S
C945        C946   1.420       .  A
C946        C947   1.450       .  A
C946       C1137   1.511       .  S
C947        C948   1.420       .  A
C947       C1121   1.511       .  S
C948        H949   1.084       .  S
N951        C956   1.348       .  A
N951        C955   1.349       .  A
N951        H983   1.039       .  S
N952        C959   1.348       .  A
N952        C960   1.348       .  A
N953        C958   1.348       .  A
N953        C957   1.349       .  A
N953        H984   1.039       .  S
N954        C961   1.347       .  A
N954        C962   1.347       .  A
C955        C963   1.386       .  A
C955        C971   1.409       .  A
C956       C1356   1.409   1_545  A
C956        C964   1.386       .  A
C957        C965   1.386       .  A
C957        C974   1.409       .  A
C958       C1357   1.409   1_545  A
C958        C966   1.386       .  A
C959        C971   1.405       .  A
C959        C967   1.378       .  A
C960        C974   1.405       .  A
C960        C968   1.378       .  A
C961        C969   1.378       .  A
C961        C972   1.405       .  A
C962        C970   1.378       .  A
C962        C973   1.405       .  A
C963        C964   1.366       .  A
C963        H975   1.079       .  S
C964        H976   1.079   1_545  S
C965        C966   1.366       .  A
C965        H977   1.079       .  S
C966        H978   1.079   1_545  S
C967        C968   1.379       .  A
C967        H979   1.078       .  S
C968        H980   1.078       .  S
C969        C970   1.379       .  A
C969        H981   1.078       .  S
C970        H982   1.078       .  S
C971        C986   1.488       .  S
C972       C1340   1.409       .  A
C973       C1342   1.409       .  A
C985        C986   1.401       .  A
C985        C990   1.393       .  A
C985       C1022   1.488       .  S
C986        C987   1.393       .  A
C987        C988   1.420       .  A
C987        H992   1.084       .  S
C988        C989   1.451       .  A
C988       C1149   1.511       .  S
C989        C990   1.420       .  A
C989       C1135   1.512       .  S
C993        C994   1.401       .  A
C993        C998   1.393       .  A
C993       C1056   1.488       .  S
C994        C995   1.393       .  A
C994       C1021   1.488       .  S
C995        C996   1.420       .  A
C995       H1000   1.084       .  S
C996        C997   1.451       .  A
C996       C1123   1.512       .  S
C997        C998   1.420       .  A
C997       C1151   1.511       .  S
C998        H999   1.084       .  S
N1001      C1006   1.348       .  A
N1001      C1005   1.348       .  A
N1001      H1033   1.039       .  S
N1002      C1009   1.348       .  A
N1002      C1010   1.347       .  A
N1003      C1008   1.348       .  A
N1003      C1007   1.348       .  A
N1003      H1034   1.039       .  S
C1005      C1013   1.386       .  A
C1005      C1405   1.409   1_545  A
C1006      C1014   1.386       .  A
C1007      C1015   1.386       .  A
C1007      C1408   1.409   1_545  A
C1008      C1016   1.386       .  A
C1009      C1021   1.406       .  A
C1009      C1017   1.378       .  A
C1010      C1024   1.406       .  A
C1010      C1018   1.378       .  A
C1011      C1019   1.378       .  A
C1011      C1022   1.406       .  A
C1012      C1020   1.378       .  A
C1012      C1023   1.406       .  A
C1013      C1014   1.366       .  A
C1013      H1025   1.079   1_545  S
C1014      H1026   1.079       .  S
C1015      C1016   1.366       .  A
C1015      H1027   1.079   1_545  S
C1016      H1028   1.079       .  S
C1017      C1018   1.380       .  A
C1017      H1029   1.078       .  S
C1018      H1030   1.078       .  S
C1019      C1020   1.380       .  A
C1019      H1031   1.078       .  S
C1020      H1032   1.078       .  S
C1021      C1389   1.409       .  A
C1024      C1391   1.409       .  A
N1035      C1040   1.349       .  A
N1035      C1039   1.348       .  A
N1035      H1067   1.039       .  S
N1037      C1042   1.348       .  A
N1037      C1041   1.348       .  A
N1037      H1068   1.039       .  S
N1038      C1045   1.348       .  A
N1038      C1046   1.348       .  A
C1039      C1047   1.386       .  A
C1040      C1056   1.409       .  A
C1040      C1048   1.386       .  A
C1041      C1049   1.386       .  A
C1042      C1057   1.409       .  A
C1042      C1050   1.386       .  A
C1043      C1055   1.405       .  A
C1043      C1051   1.378       .  A
C1044      C1058   1.405       .  A
C1044      C1052   1.378       .  A
C1045      C1053   1.378       .  A
C1045      C1056   1.405       .  A
C1046      C1054   1.378       .  A
C1046      C1057   1.405       .  A
C1047      C1048   1.366       .  A
C1047      H1059   1.079       .  S
C1048      H1060   1.079       .  S
C1049      C1050   1.366       .  A
C1049      H1061   1.079       .  S
C1050      H1062   1.079       .  S
C1051      C1052   1.379       .  A
C1051      H1063   1.078       .  S
C1052      H1064   1.078       .  S
C1053      C1054   1.379       .  A
C1053      H1065   1.078       .  S
C1054      H1066   1.078       .  S
O1069      V1077   1.927   1_554  S
O1069      C1079   1.262       .  A
O1070      V1077   1.901       .  S
O1070      C1080   1.275       .  A
O1071      V1077   1.927   1_554  S
O1071      C1081   1.262       .  A
O1072      V1077   1.901       .  S
O1072      C1082   1.275       .  A
O1073      V1078   1.927   1_556  S
O1073      C1082   1.262       .  A
O1074      V1078   1.901       .  S
O1074      C1081   1.275       .  A
O1075      V1078   1.927   1_556  S
O1075      C1080   1.262       .  A
O1076      V1078   1.901       .  S
O1076      C1079   1.275       .  A
V1077      V1078   2.078   1_556  T
O1083      C1093   1.275       .  A
O1084      V1091   1.926   1_556  S
O1084      C1094   1.262       .  A
O1085      C1095   1.275       .  A
O1086      V1091   1.927   1_556  S
O1086      C1096   1.263       .  A
O1087      V1092   1.901       .  S
O1088      V1092   1.927   1_554  S
O1088      C1095   1.263       .  A
O1089      V1092   1.900       .  S
O1090      V1092   1.926   1_554  S
O1090      C1093   1.262       .  A
O1097      V1105   1.901       .  S
O1097      C1491   1.275       .  A
O1098      V1105   1.927   1_556  S
O1098      C1108   1.263       .  A
O1099      V1105   1.900       .  S
O1099      C1493   1.275       .  A
O1100      V1105   1.926   1_556  S
O1100      C1110   1.262       .  A
O1101      V1490   1.900       .  S
O1101      C1110   1.275       .  A
O1102      V1106   1.926   1_554  S
O1102      C1109   1.262       .  A
O1103      V1490   1.901       .  S
O1103      C1108   1.275       .  A
O1104      V1106   1.927   1_554  S
O1104      C1107   1.263       .  A
V1105      V1490   2.078   1_554  T
V1106      O1485   1.900   1_545  S
V1106      O1487   1.901   1_545  S
V1106      V1489   2.078   1_546  T
C1107      O1481   1.275   1_545  A
C1109      O1483   1.275   1_545  A
O1111      V1119   1.926       .  S
O1111      C1121   1.262       .  A
O1112      V1119   1.900       .  S
O1112      C1506   1.275       .  A
O1113      V1119   1.927       .  S
O1113      C1123   1.263       .  A
O1114      V1119   1.901       .  S
O1114      C1508   1.275       .  A
O1115      V1120   1.927       .  S
O1115      C1124   1.263       .  A
O1116      V1504   1.901       .  S
O1116      C1123   1.275       .  A
O1117      V1120   1.926       .  S
O1117      C1122   1.262       .  A
O1118      V1504   1.900       .  S
O1118      C1121   1.275       .  A
V1119      V1504   2.078       .  T
V1120      O1500   1.901   1_545  S
V1120      O1502   1.900   1_545  S
V1120      V1503   2.078   1_545  T
C1122      O1496   1.275   1_545  A
C1124      O1498   1.275   1_545  A
O1125      V1133   1.927       .  S
O1125      C1135   1.263       .  A
O1126      C1136   1.275       .  A
O1127      V1133   1.926       .  S
O1127      C1137   1.262       .  A
O1128      C1138   1.275       .  A
O1129      V1134   1.926       .  S
O1129      C1138   1.262       .  A
O1130      V1134   1.900       .  S
O1131      V1134   1.927       .  S
O1131      C1136   1.263       .  A
O1132      V1134   1.901       .  S
O1139      V1147   1.901       .  S
O1139      C1149   1.275       .  A
O1140      V1147   1.927       .  S
O1140      C1150   1.262       .  A
O1141      V1147   1.901       .  S
O1141      C1151   1.275       .  A
O1142      V1147   1.926       .  S
O1142      C1152   1.262       .  A
O1143      V1148   1.901       .  S
O1143      C1152   1.275       .  A
O1144      V1148   1.927       .  S
O1144      C1151   1.262       .  A
O1145      V1148   1.901       .  S
O1145      C1150   1.275       .  A
O1146      V1148   1.926       .  S
O1146      C1149   1.262       .  A
V1147      V1148   2.078       .  T
C1153      C1154   1.401       .  A
C1153      C1158   1.393       .  A
C1153      C1191   1.488       .  S
C1154      C1155   1.393       .  A
C1154      C1257   1.488       .  S
C1155      C1156   1.420       .  A
C1155      H1160   1.084       .  S
C1156      C1157   1.451       .  A
C1156      C1536   1.511       .  S
C1157      C1158   1.420       .  A
C1157      C1508   1.512       .  S
C1161      C1162   1.401       .  A
C1161      C1166   1.393       .  A
C1161      C1190   1.488       .  S
C1162      C1163   1.393       .  A
C1162      C1256   1.488       .  S
C1163      C1164   1.420       .  A
C1163      H1168   1.084       .  S
C1164      C1165   1.451       .  A
C1164      C1463   1.511       .  S
C1165      C1166   1.420       .  A
C1165      C1491   1.512       .  S
N1169      C1174   1.348       .  A
N1169      H1201   1.039       .  S
N1170      C1177   1.347       .  A
N1170      C1178   1.348       .  A
N1171      C1176   1.348       .  A
N1171      H1202   1.039       .  S
C1173      C1189   1.409   1_455  A
C1174      C1182   1.386       .  A
C1175      C1192   1.409   1_455  A
C1176      C1184   1.386       .  A
C1177      C1189   1.406       .  A
C1177      C1185   1.378       .  A
C1178      C1192   1.406       .  A
C1178      C1186   1.378       .  A
C1179      C1187   1.378       .  A
C1179      C1190   1.406       .  A
C1180      C1188   1.378       .  A
C1180      C1191   1.406       .  A
C1181      C1182   1.366       .  A
C1182      H1194   1.079       .  S
C1183      C1184   1.366       .  A
C1184      H1196   1.079       .  S
C1185      C1186   1.380       .  A
C1185      H1197   1.078       .  S
C1186      H1198   1.078       .  S
C1187      C1188   1.380       .  A
C1187      H1199   1.078       .  S
C1188      H1200   1.078       .  S
C1189      C1203   1.488       .  S
C1192      C1211   1.488       .  S
C1203      C1204   1.401       .  A
C1203      C1208   1.393       .  A
C1204      C1205   1.393       .  A
C1204      C1289   1.488       .  S
C1205      C1206   1.420       .  A
C1205      H1210   1.084       .  S
C1206      C1207   1.451       .  A
C1206      C1465   1.511       .  S
C1207      C1208   1.420       .  A
C1207      C1479   1.512       .  S
C1208      H1209   1.084       .  S
C1211      C1212   1.401       .  A
C1211      C1216   1.393       .  A
C1212      C1213   1.393       .  A
C1212      C1292   1.488       .  S
C1213      C1214   1.420       .  A
C1213      H1218   1.084       .  S
C1214      C1215   1.451       .  A
C1214      C1534   1.511       .  S
C1215      C1216   1.420       .  A
C1215      C1520   1.512       .  S
C1216      H1217   1.084       .  S
C1219      C1220   1.401       .  A
C1219      C1224   1.393       .  A
C1219      C1255   1.488       .  S
C1220      C1221   1.393       .  A
C1220      C1290   1.487       .  S
C1221      C1222   1.420       .  A
C1222      C1223   1.450       .  A
C1222      C1493   1.511       .  S
C1223      C1224   1.420       .  A
C1223      C1477   1.511       .  S
C1224      H1225   1.084       .  S
C1227      C1228   1.401       .  A
C1227      C1232   1.393       .  A
C1227      C1291   1.487       .  S
C1228      C1229   1.393       .  A
C1228      C1258   1.488       .  S
C1229      C1230   1.420       .  A
C1229      H1234   1.084       .  S
C1230      C1231   1.450       .  A
C1230      C1522   1.511       .  S
C1231      C1232   1.420       .  A
C1231      C1506   1.511       .  S
N1235      C1240   1.349       .  A
N1235      C1239   1.348       .  A
N1235      H1267   1.039       .  S
N1236      C1243   1.347       .  A
N1236      C1244   1.347       .  A
N1237      C1242   1.349       .  A
N1237      C1241   1.348       .  A
N1237      H1268   1.039       .  S
N1238      C1245   1.348       .  A
N1238      C1246   1.348       .  A
C1239      C1247   1.386       .  A
C1240      C1256   1.409       .  A
C1240      C1248   1.386       .  A
C1241      C1249   1.386       .  A
C1242      C1257   1.409       .  A
C1242      C1250   1.386       .  A
C1243      C1255   1.405       .  A
C1243      C1251   1.378       .  A
C1244      C1258   1.405       .  A
C1244      C1252   1.378       .  A
C1245      C1253   1.378       .  A
C1245      C1256   1.405       .  A
C1246      C1254   1.378       .  A
C1246      C1257   1.405       .  A
C1247      C1248   1.366       .  A
C1248      H1260   1.079       .  S
C1249      C1250   1.366       .  A
C1250      H1262   1.079       .  S
C1251      C1252   1.379       .  A
C1251      H1263   1.078       .  S
C1252      H1264   1.078       .  S
C1253      C1254   1.379       .  A
C1253      H1265   1.078       .  S
C1254      H1266   1.078       .  S
N1269      C1274   1.348       .  A
N1269      C1273   1.348       .  A
N1269      H1301   1.039       .  S
N1270      C1277   1.348       .  A
N1270      C1278   1.348       .  A
N1271      C1276   1.348       .  A
N1271      C1275   1.349       .  A
N1271      H1302   1.039       .  S
C1273      C1281   1.386       .  A
C1273      C1289   1.409       .  A
C1274      C1282   1.386       .  A
C1275      C1283   1.386       .  A
C1275      C1292   1.409       .  A
C1276      C1284   1.386       .  A
C1277      C1289   1.405       .  A
C1277      C1285   1.378       .  A
C1278      C1292   1.405       .  A
C1278      C1286   1.378       .  A
C1279      C1287   1.378       .  A
C1279      C1290   1.405       .  A
C1280      C1288   1.378       .  A
C1280      C1291   1.405       .  A
C1281      C1282   1.366       .  A
C1281      H1293   1.079       .  S
C1282      H1294   1.079       .  S
C1283      C1284   1.366       .  A
C1283      H1295   1.079       .  S
C1284      H1296   1.079       .  S
C1285      C1286   1.379       .  A
C1285      H1297   1.078       .  S
C1286      H1298   1.078       .  S
C1287      C1288   1.379       .  A
C1287      H1299   1.078       .  S
C1288      H1300   1.078       .  S
C1303      C1304   1.401       .  A
C1303      C1308   1.393       .  A
C1303      C1358   1.488       .  S
C1304      C1305   1.393       .  A
C1304      C1407   1.488       .  S
C1305      C1306   1.420       .  A
C1306      C1307   1.451       .  A
C1306      C1480   1.512       .  S
C1307      C1308   1.420       .  A
C1307      C1466   1.511       .  S
C1308      H1309   1.084       .  S
C1311      C1312   1.401       .  A
C1311      C1316   1.393       .  A
C1311      C1442   1.488       .  S
C1312      C1313   1.393       .  A
C1312      C1357   1.488       .  S
C1313      C1314   1.420       .  A
C1313      H1318   1.084       .  S
C1314      C1315   1.450       .  A
C1314      C1494   1.511       .  S
C1315      C1316   1.420       .  A
C1315      C1478   1.511       .  S
C1319      C1320   1.401       .  A
C1319      C1324   1.393       .  A
C1319      C1441   1.488       .  S
C1320      C1321   1.393       .  A
C1320      C1408   1.488       .  S
C1321      C1322   1.420       .  A
C1321      H1326   1.084       .  S
C1322      C1323   1.451       .  A
C1322      C1492   1.512       .  S
C1323      C1324   1.420       .  A
C1323      C1464   1.511       .  S
C1324      H1325   1.084       .  S
C1327      C1328   1.401       .  A
C1327      C1332   1.393       .  A
C1327      C1356   1.488       .  S
C1328      C1329   1.393       .  A
C1328      C1439   1.487       .  S
C1329      C1330   1.420       .  A
C1330      C1331   1.450       .  A
C1330      C1521   1.511       .  S
C1331      C1332   1.420       .  A
C1331      C1505   1.511       .  S
C1332      H1333   1.084       .  S
N1335      C1340   1.348       .  A
N1335      C1339   1.349       .  A
N1335      H1367   1.039       .  S
N1336      C1343   1.348       .  A
N1336      C1344   1.348       .  A
N1337      C1342   1.348       .  A
N1337      C1341   1.349       .  A
N1337      H1368   1.039       .  S
N1338      C1345   1.347       .  A
N1338      C1346   1.347       .  A
C1339      C1347   1.386       .  A
C1339      C1355   1.409       .  A
C1340      C1348   1.386       .  A
C1341      C1349   1.386       .  A
C1341      C1358   1.409       .  A
C1342      C1350   1.386       .  A
C1343      C1355   1.405       .  A
C1343      C1351   1.378       .  A
C1344      C1358   1.405       .  A
C1344      C1352   1.378       .  A
C1345      C1353   1.378       .  A
C1345      C1356   1.405       .  A
C1346      C1354   1.378       .  A
C1346      C1357   1.405       .  A
C1347      C1348   1.366       .  A
C1347      H1359   1.079       .  S
C1348      H1360   1.079       .  S
C1349      C1350   1.366       .  A
C1349      H1361   1.079       .  S
C1350      H1362   1.079       .  S
C1351      C1352   1.379       .  A
C1351      H1363   1.078       .  S
C1352      H1364   1.078       .  S
C1353      C1354   1.379       .  A
C1353      H1365   1.078       .  S
C1354      H1366   1.078       .  S
C1355      C1370   1.488       .  S
C1369      C1370   1.401       .  A
C1369      C1374   1.393       .  A
C1369      C1406   1.488       .  S
C1370      C1371   1.393       .  A
C1371      C1372   1.420       .  A
C1371      H1376   1.084       .  S
C1372      C1373   1.451       .  A
C1372      C1533   1.511       .  S
C1373      C1374   1.420       .  A
C1373      C1519   1.512       .  S
C1377      C1378   1.401       .  A
C1377      C1382   1.393       .  A
C1377      C1440   1.488       .  S
C1378      C1379   1.393       .  A
C1378      C1405   1.488       .  S
C1379      C1380   1.420       .  A
C1379      H1384   1.084       .  S
C1380      C1381   1.451       .  A
C1380      C1507   1.512       .  S
C1381      C1382   1.420       .  A
C1381      C1535   1.511       .  S
C1382      H1383   1.084       .  S
N1385      C1390   1.348       .  A
N1385      C1389   1.348       .  A
N1385      H1417   1.039       .  S
N1386      C1393   1.348       .  A
N1386      C1394   1.348       .  A
N1387      C1392   1.348       .  A
N1387      C1391   1.348       .  A
N1387      H1418   1.039       .  S
C1389      C1397   1.386       .  A
C1390      C1398   1.386       .  A
C1391      C1399   1.386       .  A
C1392      C1400   1.386       .  A
C1393      C1405   1.406       .  A
C1393      C1401   1.378       .  A
C1394      C1408   1.406       .  A
C1394      C1402   1.378       .  A
C1395      C1403   1.378       .  A
C1395      C1406   1.406       .  A
C1396      C1404   1.378       .  A
C1396      C1407   1.406       .  A
C1397      C1398   1.366       .  A
C1397      H1409   1.079       .  S
C1398      H1410   1.079       .  S
C1399      C1400   1.366       .  A
C1399      H1411   1.079       .  S
C1400      H1412   1.079       .  S
C1401      C1402   1.380       .  A
C1401      H1413   1.078       .  S
C1402      H1414   1.078       .  S
C1403      C1404   1.380       .  A
C1403      H1415   1.078       .  S
C1404      H1416   1.078       .  S
N1419      C1424   1.349       .  A
N1419      C1423   1.348       .  A
N1419      H1451   1.039       .  S
N1421      C1426   1.348       .  A
N1421      C1425   1.348       .  A
N1421      H1452   1.039       .  S
N1422      C1429   1.348       .  A
N1422      C1430   1.348       .  A
C1423      C1431   1.386       .  A
C1424      C1440   1.409       .  A
C1424      C1432   1.386       .  A
C1425      C1433   1.386       .  A
C1426      C1441   1.409       .  A
C1426      C1434   1.386       .  A
C1427      C1439   1.405       .  A
C1427      C1435   1.378       .  A
C1428      C1442   1.405       .  A
C1428      C1436   1.378       .  A
C1429      C1437   1.378       .  A
C1429      C1440   1.405       .  A
C1430      C1438   1.378       .  A
C1430      C1441   1.405       .  A
C1431      C1432   1.366       .  A
C1431      H1443   1.079       .  S
C1432      H1444   1.079       .  S
C1433      C1434   1.366       .  A
C1433      H1445   1.079       .  S
C1434      H1446   1.079       .  S
C1435      C1436   1.379       .  A
C1435      H1447   1.078       .  S
C1436      H1448   1.078       .  S
C1437      C1438   1.379       .  A
C1437      H1449   1.078       .  S
C1438      H1450   1.078       .  S
O1453      V1461   1.927   1_554  S
O1453      C1463   1.262       .  A
O1454      V1461   1.901       .  S
O1454      C1464   1.275       .  A
O1455      V1461   1.927   1_554  S
O1455      C1465   1.262       .  A
O1456      V1461   1.901       .  S
O1456      C1466   1.275       .  A
O1457      V1462   1.927   1_556  S
O1457      C1466   1.262       .  A
O1458      V1462   1.901       .  S
O1458      C1465   1.275       .  A
O1459      V1462   1.927   1_556  S
O1459      C1464   1.262       .  A
O1460      V1462   1.901       .  S
O1460      C1463   1.275       .  A
V1461      V1462   2.078   1_556  T
O1467      C1477   1.275       .  A
O1468      V1475   1.926   1_556  S
O1468      C1478   1.262       .  A
O1469      C1479   1.275       .  A
O1470      V1475   1.927   1_556  S
O1470      C1480   1.263       .  A
O1471      V1476   1.901       .  S
O1472      V1476   1.927   1_554  S
O1472      C1479   1.263       .  A
O1473      V1476   1.900       .  S
O1474      V1476   1.926   1_554  S
O1474      C1477   1.262       .  A
O1481      V1489   1.901       .  S
O1482      V1489   1.927   1_556  S
O1482      C1492   1.263       .  A
O1483      V1489   1.900       .  S
O1484      V1489   1.926   1_556  S
O1484      C1494   1.262       .  A
O1485      C1494   1.275       .  A
O1486      V1490   1.926   1_554  S
O1486      C1493   1.262       .  A
O1487      C1492   1.275       .  A
O1488      V1490   1.927   1_554  S
O1488      C1491   1.263       .  A
O1495      V1503   1.926       .  S
O1495      C1505   1.262       .  A
O1496      V1503   1.900       .  S
O1497      V1503   1.927       .  S
O1497      C1507   1.263       .  A
O1498      V1503   1.901       .  S
O1499      V1504   1.927       .  S
O1499      C1508   1.263       .  A
O1500      C1507   1.275       .  A
O1501      V1504   1.926       .  S
O1501      C1506   1.262       .  A
O1502      C1505   1.275       .  A
O1509      V1517   1.927       .  S
O1509      C1519   1.263       .  A
O1510      C1520   1.275       .  A
O1511      V1517   1.926       .  S
O1511      C1521   1.262       .  A
O1512      C1522   1.275       .  A
O1513      V1518   1.926       .  S
O1513      C1522   1.262       .  A
O1514      V1518   1.900       .  S
O1515      V1518   1.927       .  S
O1515      C1520   1.263       .  A
O1516      V1518   1.901       .  S
O1523      V1531   1.901       .  S
O1523      C1533   1.275       .  A
O1524      V1531   1.927       .  S
O1524      C1534   1.262       .  A
O1525      V1531   1.901       .  S
O1525      C1535   1.275       .  A
O1526      V1531   1.927       .  S
O1526      C1536   1.262       .  A
O1527      V1532   1.901       .  S
O1527      C1536   1.275       .  A
O1528      V1532   1.927       .  S
O1528      C1535   1.262       .  A
O1529      V1532   1.901       .  S
O1529      C1534   1.275       .  A
O1530      V1532   1.927       .  S
O1530      C1533   1.262       .  A
V1531      V1532   2.078       .  T
