geometry optimzed in LAMMPS
_audit_creation_date              2020-11-30 
_audit_creation_method            'lammps2cif' 
_symmetry_space_group_name_H-M    'P1' 
_symmetry_Int_Tables_number       1 
_symmetry_cell_setting            triclinic 
loop_ 
_symmetry_equiv_pos_as_xyz 
  x,y,z 
_cell_length_a                    33.41292998 
_cell_length_b                    33.05813565313883 
_cell_length_c                    39.00869178346106 
_cell_angle_alpha                 75.83284149438482 
_cell_angle_beta                  76.63797620532125 
_cell_angle_gamma                 87.09002223905246 
loop_ 
_atom_site_label 
_atom_site_type_symbol 
_atom_site_fract_x 
_atom_site_fract_y 
_atom_site_fract_z 
_atom_site_charge 
N1          N  0.29287328  0.94063349  0.25622893    -0.02500
C2          C  0.33453773  0.93850271  0.24639423     0.00100
C3          C  0.34596511  0.92935626  0.21256655    -0.22800
C4          C  0.31033895  0.92642356  0.20131094    -0.23000
C5          C  0.27813321  0.93375664  0.22847254     0.00000
H6          H  0.37663269  0.92562078  0.19708817     0.13800
H7          H  0.30844106  0.92116323  0.17542115     0.13800
N8          N  0.63549477  0.98384979  0.33727310    -0.02500
C9          C  0.59422255  0.98916160  0.34316132     0.00100
C10         C  0.58114312  0.00729231  0.37242405    -0.22800
C11         C  0.61538804  0.01234824  0.38499501    -0.23000
C12         C  0.64842678  0.99745172  0.36295347     0.00000
H13         H  0.55024483  0.01609936  0.38378928     0.13800
H14         H  0.61552656  0.02436682  0.40837887     0.13800
N15         N  0.92611571  0.27693336  0.26144939    -0.02500
C16         C  0.91673036  0.31818707  0.25687920     0.00100
C17         C  0.90053064  0.33164467  0.22634784    -0.22800
C18         C  0.90099576  0.29825363  0.21134206    -0.23000
C19         C  0.91697740  0.26484491  0.23314994     0.00000
H20         H  0.88977991  0.36238768  0.21532986     0.13800
H21         H  0.89236774  0.29929415  0.18607273     0.13800
N22         N  0.95809577  0.62205716  0.34767566    -0.02500
C23         C  0.96178205  0.57976933  0.35475290     0.00100
C24         C  0.97855707  0.56554349  0.38485275    -0.22800
C25         C  0.98417968  0.59964479  0.39725521    -0.23000
C26         C  0.97110776  0.63408055  0.37434424     0.00000
H27         H  0.98596216  0.53385772  0.39702147     0.13800
H28         H  0.99477546  0.59875212  0.42162117     0.13800
O29         O  0.93508182  0.01120860  0.08148653    -0.79100
O30         O  0.92630324  0.95375634  0.46975540    -0.79100
O31         O  0.99663407  0.03955135  0.49019309    -0.79200
O32         O  0.88511809  0.94863580  0.09993593    -0.79100
O33         O  0.93530950  0.01225826  0.50556494    -0.79200
O34         O  0.91960869  0.94836360  0.14259040    -0.79100
O35         O  0.88660111  0.95301177  0.02439502    -0.79100
O36         O  0.99727194  0.03589959  0.06571175    -0.79200
C37         C  0.95950529  0.03970460  0.07942566     1.10600
C38         C  0.89019803  0.96245243  0.98950599     1.10500
C39         C  0.95904044  0.04253066  0.48874337     1.10600
C40         C  0.88577637  0.95074056  0.13252810     1.10500
O41         O  0.97997210  0.89924000  0.11268473    -0.79100
O42         O  0.00593357  0.97882141  0.46134756    -0.79200
O43         O  0.05109701  0.96539618  0.06526266    -0.79100
O44         O  0.93280988  0.87487940  0.03185182    -0.79100
O45         O  0.98589785  0.90412025  0.49600034    -0.79200
O46         O  0.00372878  0.97044869  0.11352656    -0.79100
O47         O  0.92965891  0.86963004  0.10268655    -0.79100
O48         O  0.05343521  0.97007276  0.49272990    -0.79200
Co49       Co  0.95587614  0.95365332  0.09605477     1.51500
Co50       Co  0.95881315  0.95633245  0.50305341     1.51700
Co51       Co  0.02152634  0.00027994  0.03073861     1.51600
Co52       Co  0.91680749  0.91671897  0.06246545     1.51500
O53         O  0.97743909  0.95172407  0.04629273    -1.41100
C54         C  0.95916288  0.86726007  0.11810686     1.10500
C55         C  0.04313741  0.97217009  0.46314970     1.10600
C56         C  0.04088580  0.96387788  0.09880089     1.10500
C57         C  0.96276753  0.87633670  0.00526163     1.10500
C58         C  0.95999095  0.77903661  0.46730136     0.19700
C59         C  0.93028450  0.76869192  0.45050556    -0.18400
C60         C  0.93917522  0.74021025  0.42841515    -0.10700
C61         C  0.97803812  0.72121898  0.42295312     0.22000
C62         C  0.00758471  0.73155286  0.43989377    -0.20000
C63         C  0.99877230  0.76003271  0.46178302    -0.10800
C64         C  0.98768241  0.68678979  0.40394590    -0.15000
C65         C  0.96534689  0.67581671  0.38284127    -0.28900
C66         C  0.94966980  0.80970248  0.49029375    -0.03100
C67         C  0.97808380  0.83478401  0.49400427    -0.39700
H68         H  0.89338163  0.78058694  0.95667166     0.13100
H69         H  0.91516194  0.73227798  0.41673424     0.12700
H70         H  0.03747401  0.71678091  0.43682876     0.12200
H71         H  0.02210120  0.76626994  0.47500826     0.12400
H72         H  0.01391353  0.66763554  0.40951093     0.15200
H73         H  0.94082947  0.69555084  0.37421650     0.13900
H74         H  0.91336672  0.81766827  0.99979019     0.11600
H75         H  0.00995896  0.83311238  0.47990958     0.13600
C76         C  0.95832265  0.71266854  0.26373833     0.19700
C77         C  0.98453085  0.74733058  0.24750124    -0.18400
C78         C  0.97944127  0.77555795  0.21569916    -0.10700
C79         C  0.94797292  0.76990488  0.19868041     0.22000
C80         C  0.92148759  0.73530042  0.21491051    -0.20000
C81         C  0.92661200  0.70685750  0.24696049    -0.10800
C82         C  0.94014241  0.80139143  0.16600768    -0.15000
C83         C  0.96880926  0.82922614  0.14401595    -0.28900
C84         C  0.96568652  0.68445367  0.29811690    -0.03100
C85         C  0.94550373  0.64849148  0.31645455    -0.39700
H86         H  0.00898805  0.75303943  0.25978713     0.13100
H87         H  0.99961561  0.80245691  0.20541675     0.12700
H88         H  0.89654230  0.73040273  0.20287261     0.12200
H89         H  0.90538785  0.68089763  0.25848553     0.12400
H90         H  0.90921322  0.80336127  0.16130113     0.15200
H91         H  0.99991569  0.82740857  0.14809906     0.13900
H92         H  0.99075242  0.69313825  0.30837699     0.11600
H93         H  0.92203600  0.63700555  0.30612255     0.13600
C94         C  0.95610552  0.13402131  0.40554914     0.19700
C95         C  0.98429657  0.16436342  0.38210753    -0.18400
C96         C  0.97463287  0.19082949  0.35108501    -0.10700
C97         C  0.93641616  0.18741587  0.34260896     0.22000
C98         C  0.90826822  0.15707673  0.36595727    -0.20000
C99         C  0.91781164  0.13078225  0.39704529    -0.10800
C100        C  0.92519580  0.21361150  0.30919739    -0.15000
C101        C  0.94164218  0.25142745  0.29130367    -0.28900
C102        C  0.96935852  0.10407690  0.43635850    -0.03100
C103        C  0.94370772  0.07810054  0.46388241    -0.39700
H104        H  0.01428919  0.16716867  0.38749931     0.13100
H105        H  0.99762733  0.21301927  0.33336691     0.12700
H106        H  0.87876918  0.15342664  0.35994404     0.12200
H107        H  0.89551311  0.10718824  0.41344674     0.12400
H108        H  0.90026726  0.20252603  0.30018911     0.15200
H109        H  0.96378060  0.26508587  0.30166879     0.13900
H110        H  0.00219907  0.10176257  0.43515497     0.11600
H111        H  0.91075041  0.07985834  0.46619078     0.13600
C112        C  0.92529862  0.17981513  0.17899750     0.19700
C113        C  0.90208228  0.17240408  0.15532171    -0.18400
C114        C  0.91567747  0.14474291  0.13320343    -0.10700
C115        C  0.95293339  0.12328939  0.13436661     0.22000
C116        C  0.97623260  0.13053164  0.15808710    -0.20000
C117        C  0.96263702  0.15843235  0.18023632    -0.10800
C118        C  0.96857642  0.09352580  0.11116585    -0.15000
C119        C  0.94428339  0.07418927  0.09680710    -0.28900
C120        C  0.91070170  0.21292305  0.19883524    -0.03100
C121        C  0.92852559  0.22461695  0.22270879    -0.39700
H122        H  0.87353555  0.18887975  0.15326506     0.13100
H123        H  0.89725807  0.14117749  0.11469398     0.12700
H124        H  0.00516865  0.11458523  0.15942928     0.12200
H125        H  0.98188243  0.16363203  0.19754653     0.12400
H126        H  0.00075099  0.08465331  0.10819659     0.15200
H127        H  0.91140465  0.07964499  0.10194277     0.13900
H128        H  0.88423353  0.23043843  0.19165562     0.11600
H129        H  0.95333007  0.20670892  0.23264181     0.13600
C130        C  0.93826142  0.47964784  0.32696515     0.19700
C131        C  0.93743170  0.43695239  0.34452801    -0.18400
C132        C  0.93133790  0.40635268  0.32693459    -0.10700
C133        C  0.92593504  0.41788506  0.29115939     0.22000
C134        C  0.92599765  0.46056525  0.27391022    -0.18900
C135        C  0.93212882  0.49109330  0.29143657    -0.10800
C136        C  0.91973994  0.38734693  0.27039554    -0.15000
C137        C  0.92303571  0.34537413  0.28068267    -0.28900
C138        C  0.94642249  0.51050229  0.34674128    -0.03100
C139        C  0.95054515  0.55229752  0.33326322    -0.39700
H140        H  0.94184959  0.42711992  0.37200328     0.13100
H141        H  0.93085909  0.37401875  0.34156037     0.12700
H142        H  0.92157856  0.47047647  0.24643754     0.12200
H143        H  0.93215641  0.52334677  0.27676986     0.12400
H144        H  0.91313551  0.40111268  0.24412270     0.15200
H145        H  0.93125268  0.33075930  0.30612192     0.13900
H146        H  0.94966767  0.49739833  0.37428419     0.11600
H147        H  0.94611117  0.56675849  0.30637988     0.13600
C148        C  0.74482633  0.00324975  0.40067626     0.19700
C149        C  0.75004768  0.01609794  0.43107734    -0.18400
C150        C  0.78569609  0.00617509  0.44411946    -0.10700
C151        C  0.81709847  0.98310233  0.42695019     0.22000
C152        C  0.81298397  0.97204640  0.39543858    -0.20000
C153        C  0.77714771  0.98186685  0.38239213    -0.10800
C154        C  0.85460567  0.97093598  0.44109427    -0.15000
C155        C  0.85406195  0.96336909  0.47667371    -0.28900
C156        C  0.70481921  0.01214080  0.38990414    -0.03100
C157        C  0.69095092  0.99215321  0.36874233    -0.39700
H158        H  0.72604864  0.03324493  0.44529227     0.13100
H159        H  0.78859812  0.01680424  0.46756308     0.12700
H160        H  0.83722296  0.95508056  0.38129235     0.12200
H161        H  0.77515749  0.97265570  0.35809771     0.12400
H162        H  0.88295067  0.96686926  0.42196526     0.15200
H163        H  0.82535261  0.96484064  0.49620325     0.13900
H164        H  0.68480838  0.03432954  0.40192261     0.11600
H165        H  0.71016200  0.96968626  0.35657003     0.13600
C166        C  0.80007217  0.96053178  0.21479870     0.19700
C167        C  0.78300535  0.93269259  0.24788744    -0.18400
C168        C  0.74605852  0.94219315  0.26990534    -0.10700
C169        C  0.72614846  0.98020726  0.25945194     0.22000
C170        C  0.74332977  0.00803975  0.22647931    -0.20000
C171        C  0.77968854  0.99818787  0.20416167    -0.10800
C172        C  0.69114473  0.99429327  0.28461679    -0.15000
C173        C  0.66198105  0.96882164  0.30839307    -0.28900
C174        C  0.83981750  0.95062138  0.19226015    -0.03100
C175        C  0.84715027  0.96074391  0.15588063    -0.39700
H176        H  0.79841162  0.90369777  0.25676058     0.13100
H177        H  0.73414881  0.92075576  0.29578256     0.12700
H178        H  0.72896763  0.03788692  0.21832278     0.12200
H179        H  0.79260170  0.02073889  0.17921769     0.12400
H180        H  0.69032078  0.02711393  0.28495858     0.15200
H181        H  0.66002391  0.93635310  0.30772830     0.13900
H182        H  0.86249790  0.93289614  0.20571330     0.11600
H183        H  0.82295422  0.97490059  0.14253608     0.13600
C184        C  0.14442953  0.95268505  0.39820842     0.19700
C185        C  0.18573160  0.96433331  0.39256868    -0.18400
C186        C  0.21524528  0.95660837  0.36296792    -0.10700
C187        C  0.20393575  0.93649043  0.33872104     0.22000
C188        C  0.16285959  0.92393693  0.34494436    -0.20000
C189        C  0.13338619  0.93198222  0.37423930    -0.10800
C190        C  0.23360971  0.92722412  0.30692927    -0.15000
C191        C  0.26877377  0.94851898  0.28976593    -0.28900
C192        C  0.11394018  0.96084601  0.43010537    -0.03100
C193        C  0.07355471  0.96606105  0.43079437    -0.39700
H194        H  0.19512955  0.97966628  0.41102928     0.13100
H195        H  0.24680098  0.96576151  0.35960738     0.12700
H196        H  0.15344241  0.90796694  0.32689728     0.12200
H197        H  0.10221992  0.92115383  0.37839022     0.12400
H198        H  0.22481664  0.90293561  0.29567577     0.15200
H199        H  0.27916499  0.97236151  0.30053725     0.13900
H200        H  0.12526480  0.96351944  0.45343747     0.11600
H201        H  0.06212963  0.96592703  0.40694041     0.13600
C202        C  0.17749689  0.92248659  0.19804118     0.19700
C203        C  0.16908460  0.90135236  0.17337857    -0.18400
C204        C  0.13294263  0.90879799  0.16086285    -0.10700
C205        C  0.10415093  0.93791879  0.17249535     0.22000
C206        C  0.11073231  0.95671522  0.19935244    -0.20000
C207        C  0.14721937  0.94928539  0.21196679    -0.10800
C208        C  0.06862149  0.95021060  0.15515604    -0.15000
C209        C  0.07345091  0.95372085  0.11933693    -0.28900
C210        C  0.21905433  0.91670615  0.20640885    -0.03100
C211        C  0.23449451  0.93850621  0.22540351    -0.39700
H212        H  0.19125624  0.87988654  0.16271556     0.13100
H213        H  0.12801105  0.89235342  0.14133905     0.12700
H214        H  0.08856411  0.97859462  0.20931929     0.12200
H215        H  0.15175256  0.96538708  0.23177369     0.12400
H216        H  0.03943557  0.95796871  0.17120529     0.15200
H217        H  0.10371696  0.94855784  0.10343589     0.13900
H218        H  0.23901599  0.89421301  0.19469783     0.11600
H219        H  0.21567125  0.96048271  0.23852189     0.13600
C220        C  0.49608170  0.96683501  0.31290751     0.19700
C221        C  0.45429337  0.96311976  0.33075613    -0.18400
C222        C  0.42428984  0.95560484  0.31330642    -0.10700
C223        C  0.43532465  0.95179023  0.27719692     0.22000
C224        C  0.47723112  0.95498117  0.25945010    -0.20000
C225        C  0.50729997  0.96250844  0.27695130    -0.10800
C226        C  0.40471311  0.94456678  0.25679181    -0.15000
C227        C  0.36333365  0.94485586  0.26873588    -0.28900
C228        C  0.52597910  0.97652345  0.33287563    -0.03100
C229        C  0.56735210  0.97789371  0.32126776    -0.39700
H230        H  0.44465117  0.96623062  0.35848133     0.13100
H231        H  0.39274241  0.95283567  0.32848926     0.12700
H232        H  0.48679134  0.95208232  0.23166463     0.12200
H233        H  0.53893579  0.96545420  0.26191272     0.12400
H234        H  0.41744880  0.93961269  0.22996965     0.15200
H235        H  0.34981539  0.95050487  0.29510971     0.13900
H236        H  0.51258489  0.98254589  0.35923299     0.11600
H237        H  0.58206594  0.97010538  0.29592466     0.13600
N238        N  0.29312193  0.95669139  0.75342253    -0.02500
C239        C  0.33473232  0.95439017  0.74369507     0.00100
C240        C  0.34624284  0.94553716  0.70975748    -0.22800
C241        C  0.31066166  0.94284805  0.69837406    -0.23000
C242        C  0.27843123  0.95007710  0.72556542     0.00000
H243        H  0.37692232  0.94179933  0.69430467     0.13800
H244        H  0.30882900  0.93776433  0.67241150     0.13800
N245        N  0.63646291  0.99831216  0.83328809    -0.02500
C246        C  0.59489085  0.00132692  0.84084632     0.00100
C247        C  0.58193209  0.01798153  0.87097606    -0.22800
C248        C  0.61653291  0.02441130  0.88243101    -0.23000
C249        C  0.64972330  0.01180284  0.85891012     0.00000
H250        H  0.55088802  0.02482302  0.88375101     0.13800
H251        H  0.61680158  0.03552426  0.90624514     0.13800
N252        N  0.93013304  0.27473187  0.75995153    -0.02500
C253        C  0.92251591  0.31634520  0.75519713     0.00100
C254        C  0.90546650  0.33047414  0.72526082    -0.22800
C255        C  0.90292625  0.29687097  0.71110884    -0.23000
C256        C  0.91850870  0.26282425  0.73260197     0.00000
H257        H  0.89756602  0.36210960  0.71342869     0.13800
H258        H  0.89342794  0.29825794  0.68615378     0.13800
N259        N  0.95805700  0.61990701  0.84807746    -0.02500
C260        C  0.96218286  0.57765912  0.85491179     0.00100
C261        C  0.97373055  0.56285491  0.88762218    -0.22800
C262        C  0.97668055  0.59670877  0.90131744    -0.23000
C263        C  0.96681839  0.63151220  0.87677851     0.00000
H264        H  0.97787116  0.53075941  0.90120251     0.13800
H265        H  0.98305324  0.59550614  0.92751173     0.13800
O266        O  0.93471095  0.01284536  0.57730462    -0.79100
O267        O  0.92530363  0.96357954  0.96824299    -0.79100
O268        O  0.99764554  0.04263875  0.99370880    -0.79200
O269        O  0.88578213  0.94775558  0.60013967    -0.79100
O270        O  0.93588315  0.01683434  0.00832621    -0.79200
O271        O  0.91989343  0.95464279  0.64129037    -0.79100
O272        O  0.88789671  0.94656796  0.52574867    -0.79100
O273        O  0.99660890  0.03822528  0.56104344    -0.79200
C274        C  0.95872896  0.04195822  0.57456320     1.10600
C275        C  0.89123933  0.95287484  0.49107408     1.10500
C276        C  0.96020667  0.04666809  0.99189864     1.10600
C277        C  0.88617118  0.95444624  0.63144613     1.10500
O278        O  0.98084993  0.90367080  0.61531759    -0.79100
O279        O  0.00562548  0.98466100  0.96181545    -0.79200
O280        O  0.05144156  0.96801531  0.56371594    -0.79100
O281        O  0.93602260  0.87015688  0.53606027    -0.79100
O282        O  0.98291140  0.90937740  0.99241399    -0.79200
O283        O  0.00395704  0.97631565  0.61088040    -0.79100
O284        O  0.93335472  0.86964332  0.60561138    -0.79100
O285        O  0.05306382  0.97257795  0.99342955    -0.79200
Co286      Co  0.95609591  0.95648741  0.59529156     1.51500
Co287      Co  0.95776154  0.96132565  0.00252174     1.51700
Co288      Co  0.02148405  0.00012921  0.52825723     1.51600
Co289      Co  0.91876759  0.91391142  0.56449771     1.51500
O290        O  0.97822862  0.95083272  0.54655392    -1.41100
C291        C  0.96216799  0.87024501  0.62126786     1.10500
C292        C  0.04282758  0.97749608  0.96346759     1.10600
C293        C  0.04105505  0.96863873  0.59681449     1.10500
C294        C  0.96643267  0.87088732  0.51000151     1.10500
C295        C  0.95518571  0.78218743  0.96470746     0.19700
C296        C  0.92421614  0.76818026  0.95123944    -0.18400
C297        C  0.93263144  0.73793622  0.93078301    -0.10700
C298        C  0.97220192  0.72071510  0.92382298     0.22000
C299        C  0.00297530  0.73461794  0.93745494    -0.20000
C300        C  0.99471544  0.76498534  0.95752107    -0.10800
C301        C  0.98144655  0.68444588  0.90705040    -0.15000
C302        C  0.96062873  0.67351517  0.88481653    -0.28900
C303        C  0.94532849  0.81410479  0.98661823    -0.03100
C304        C  0.97361051  0.84107251  0.98784928    -0.39700
H305        H  0.90006866  0.78271214  0.45450165     0.13100
H306        H  0.90783451  0.72703094  0.92169071     0.12700
H307        H  0.03347221  0.72122283  0.93320521     0.12200
H308        H  0.01911384  0.77392239  0.96825861     0.12400
H309        H  0.00650403  0.66460573  0.91458670     0.15200
H310        H  0.93761834  0.69404836  0.87428251     0.13900
H311        H  0.91736300  0.81488394  0.50132150     0.11600
H312        H  0.00480457  0.84061316  0.97188486     0.13600
C313        C  0.96401082  0.71090167  0.76372054     0.19700
C314        C  0.99316864  0.74280512  0.74638753    -0.18400
C315        C  0.98917092  0.77159717  0.71448472    -0.10700
C316        C  0.95554116  0.76946458  0.69876340     0.22000
C317        C  0.92668140  0.73702792  0.71578905    -0.20000
C318        C  0.93074157  0.70810391  0.74782621    -0.10800
C319        C  0.94777607  0.80176496  0.66648174    -0.15000
C320        C  0.97357558  0.83380036  0.64777372    -0.28900
C321        C  0.96927765  0.68263291  0.79873337    -0.03100
C322        C  0.94856541  0.64660953  0.81557481    -0.39700
H323        H  0.01911093  0.74589273  0.75788962     0.13100
H324        H  0.01225456  0.79580917  0.70318014     0.12700
H325        H  0.90030437  0.73453397  0.70466616     0.12200
H326        H  0.90716114  0.68447074  0.76033791     0.12400
H327        H  0.91837286  0.80063320  0.65929439     0.15200
H328        H  0.00296773  0.83631290  0.65427377     0.13900
H329        H  0.99299110  0.69111906  0.81067039     0.11600
H330        H  0.92703935  0.63530725  0.80308485     0.13600
C331        C  0.95918366  0.13500798  0.90643518     0.19700
C332        C  0.98639468  0.16657157  0.88369049    -0.18400
C333        C  0.97692670  0.19208745  0.85219049    -0.10700
C334        C  0.93987239  0.18647369  0.84245316     0.22000
C335        C  0.91282066  0.15464398  0.86509246    -0.20000
C336        C  0.92223977  0.12923021  0.89663325    -0.10800
C337        C  0.92841090  0.21228333  0.80886913    -0.15000
C338        C  0.94635185  0.24892493  0.78925442    -0.28900
C339        C  0.97216015  0.10628949  0.93794986    -0.03100
C340        C  0.94589953  0.08227478  0.96638057    -0.39700
H341        H  0.01543274  0.17121107  0.89010645     0.13100
H342        H  0.99928441  0.21537161  0.83531525     0.12700
H343        H  0.88429107  0.14915188  0.85820143     0.12200
H344        H  0.90104767  0.10432680  0.91249922     0.12400
H345        H  0.90220239  0.20194687  0.80105480     0.15200
H346        H  0.97038611  0.26187826  0.79787737     0.13900
H347        H  0.00499714  0.10320570  0.93661634     0.11600
H348        H  0.91297887  0.08518937  0.96853926     0.13600
C349        C  0.92422344  0.17900184  0.67763502     0.19700
C350        C  0.89787785  0.16759840  0.65819200    -0.18400
C351        C  0.91112685  0.14111680  0.63485028    -0.10700
C352        C  0.95134857  0.12507551  0.63035047     0.22000
C353        C  0.97768658  0.13633252  0.64995621    -0.20000
C354        C  0.96439055  0.16295628  0.67332531    -0.10800
C355        C  0.96707350  0.09645476  0.60592819    -0.15000
C356        C  0.94300830  0.07648748  0.59181524    -0.28900
C357        C  0.90992479  0.21152408  0.69821978    -0.03100
C358        C  0.92868039  0.22255409  0.72184043    -0.39700
H359        H  0.86700019  0.18004208  0.66043218     0.13100
H360        H  0.88981501  0.13427942  0.61998300     0.12700
H361        H  0.00888096  0.12467803  0.64700391     0.12200
H362        H  0.98606450  0.17180505  0.68696702     0.12400
H363        H  0.99961896  0.08887096  0.60174752     0.15200
H364        H  0.91001538  0.08092910  0.59737536     0.13900
H365        H  0.88311740  0.22907430  0.69187421     0.11600
H366        H  0.95360581  0.20407241  0.73105833     0.13600
C367        C  0.95498955  0.47891326  0.81934995     0.19700
C368        C  0.97863639  0.44248998  0.81911909    -0.18400
C369        C  0.96725928  0.41071289  0.80512823    -0.10700
C370        C  0.93152598  0.41452401  0.79136214     0.22000
C371        C  0.90782759  0.45086344  0.79177982    -0.18900
C372        C  0.91922320  0.48261245  0.80570601    -0.10800
C373        C  0.91902939  0.38315128  0.77409336    -0.15000
C374        C  0.93335196  0.34374263  0.77705279    -0.28900
C375        C  0.96701930  0.51051981  0.83659909    -0.03100
C376        C  0.95335375  0.55028748  0.83225862    -0.39700
H377        H  0.00618798  0.43864223  0.82973753     0.13100
H378        H  0.98693094  0.38377465  0.80463455     0.12700
H379        H  0.88018340  0.45472491  0.78129524     0.12200
H380        H  0.89946296  0.50947930  0.80632605     0.12400
H381        H  0.89648965  0.39362486  0.75784258     0.15200
H382        H  0.95371102  0.33167459  0.79506516     0.13900
H383        H  0.98823531  0.49997722  0.85419041     0.11600
H384        H  0.93474195  0.56254108  0.81273934     0.13600
C385        C  0.74565141  0.01825473  0.89712307     0.19700
C386        C  0.74987268  0.02988026  0.92839407    -0.18400
C387        C  0.78518193  0.01968496  0.94198151    -0.10700
C388        C  0.81727942  0.99764482  0.92444939     0.22000
C389        C  0.81417066  0.98796483  0.89207623    -0.20000
C390        C  0.77865594  0.99796613  0.87853388    -0.10800
C391        C  0.85439201  0.98474819  0.93913589    -0.15000
C392        C  0.85340910  0.97568168  0.97490890    -0.28900
C393        C  0.70581644  0.02695733  0.88596402    -0.03100
C394        C  0.69265168  0.00770051  0.86388636    -0.39700
H395        H  0.72529330  0.04614885  0.94291900     0.13100
H396        H  0.78723121  0.02918552  0.96617119     0.12700
H397        H  0.83892071  0.97177917  0.87766425     0.12200
H398        H  0.77738137  0.98965728  0.85367839     0.12400
H399        H  0.88282571  0.98064132  0.92013165     0.15200
H400        H  0.82464837  0.97717107  0.99435817     0.13900
H401        H  0.68513475  0.04811777  0.89875092     0.11600
H402        H  0.71256910  0.98636860  0.85079206     0.13600
C403        C  0.79984311  0.97078317  0.71115290     0.19700
C404        C  0.78195001  0.94371058  0.74438875    -0.18400
C405        C  0.74531287  0.95441562  0.76600717    -0.10700
C406        C  0.72654504  0.99299005  0.75513458     0.22000
C407        C  0.74439299  0.02002342  0.72183953    -0.20000
C408        C  0.78040317  0.00881544  0.69975719    -0.10800
C409        C  0.69222287  0.00812106  0.78034282    -0.15000
C410        C  0.66245296  0.98329959  0.80410627    -0.28900
C411        C  0.83976571  0.95974421  0.68961388    -0.03100
C412        C  0.84726712  0.96639311  0.65336634    -0.39700
H413        H  0.79659103  0.91439690  0.75377224     0.13100
H414        H  0.73288619  0.93349425  0.79203859     0.12700
H415        H  0.73087965  0.05023835  0.71328088     0.12200
H416        H  0.79395150  0.03059325  0.67451512     0.12400
H417        H  0.69263061  0.04081637  0.78087179     0.15200
H418        H  0.65927612  0.95118956  0.80288738     0.13900
H419        H  0.86241228  0.94356234  0.70398455     0.11600
H420        H  0.82311519  0.97895753  0.63935851     0.13600
C421        C  0.14472265  0.96536998  0.89631102     0.19700
C422        C  0.18567979  0.97828258  0.89048419    -0.18400
C423        C  0.21537779  0.97154738  0.86056951    -0.10700
C424        C  0.20455575  0.95121120  0.83623581     0.22000
C425        C  0.16380304  0.93776991  0.84247665    -0.20000
C426        C  0.13419399  0.94478314  0.87204919    -0.10800
C427        C  0.23438834  0.94238406  0.80438380    -0.15000
C428        C  0.26904728  0.96436164  0.78703075    -0.28900
C429        C  0.11410866  0.97150175  0.92889858    -0.03100
C430        C  0.07344994  0.97448597  0.93029723    -0.39700
H431        H  0.19469130  0.99359204  0.90914046     0.13100
H432        H  0.24671313  0.98147148  0.85709539     0.12700
H433        H  0.15477259  0.92169415  0.82431959     0.12200
H434        H  0.10338268  0.93298697  0.87627261     0.12400
H435        H  0.22607298  0.91786776  0.79313458     0.15200
H436        H  0.27905285  0.98850064  0.79769379     0.13900
H437        H  0.12542405  0.97395669  0.95229381     0.11600
H438        H  0.06192986  0.97492369  0.90638071     0.13600
C439        C  0.17772604  0.93955152  0.69518522     0.19700
C440        C  0.16503922  0.91159956  0.67787274    -0.18400
C441        C  0.12876140  0.91821038  0.66548404    -0.10700
C442        C  0.10429915  0.95325392  0.66984604     0.22000
C443        C  0.11521418  0.97972052  0.68939658    -0.20000
C444        C  0.15180835  0.97318280  0.70178819    -0.10800
C445        C  0.06927819  0.96383544  0.65175206    -0.15000
C446        C  0.07302796  0.95900101  0.61794337    -0.28900
C447        C  0.21965061  0.93406422  0.70263377    -0.03100
C448        C  0.23479972  0.95477557  0.72257772    -0.39700
H449        H  0.18400279  0.88518034  0.67278997     0.13100
H450        H  0.12043431  0.89646386  0.65152108     0.12700
H451        H  0.09661625  0.00672326  0.69333634     0.12200
H452        H  0.16033358  0.99561277  0.71490437     0.12400
H453        H  0.04188327  0.97803526  0.66494897     0.15200
H454        H  0.10204503  0.94797794  0.60413356     0.13900
H455        H  0.23953291  0.91187626  0.69042262     0.11600
H456        H  0.21536871  0.97524179  0.73710032     0.13600
C457        C  0.49602294  0.97912790  0.81162651     0.19700
C458        C  0.45397776  0.98269573  0.82701615    -0.18400
C459        C  0.42387139  0.97608835  0.80932923    -0.10700
C460        C  0.43510839  0.96546235  0.77561120     0.22000
C461        C  0.47717301  0.96143971  0.76038847    -0.20000
C462        C  0.50732652  0.96812930  0.77808481    -0.10800
C463        C  0.40464912  0.95904904  0.75482573    -0.15000
C464        C  0.36331070  0.96013820  0.76636079    -0.28900
C465        C  0.52627901  0.98773200  0.83169203    -0.03100
C466        C  0.56758883  0.98971506  0.81948341    -0.39700
H467        H  0.44425541  0.99112062  0.85283225     0.13100
H468        H  0.39213508  0.97985668  0.82226638     0.12700
H469        H  0.48685937  0.95322270  0.73448496     0.12200
H470        H  0.53916151  0.96460172  0.76522544     0.12400
H471        H  0.41749613  0.95336868  0.72827404     0.15200
H472        H  0.34963892  0.96540049  0.79284370     0.13900
H473        H  0.51315309  0.99348095  0.85818468     0.11600
H474        H  0.58196373  0.98335147  0.79349898     0.13600
loop_ 
_geom_bond_atom_site_label_1 
_geom_bond_atom_site_label_2 
_geom_bond_distance 
_geom_bond_site_symmetry_2 
_ccdc_geom_bond_type 
N1            C5   1.358       .  A
N1            C2   1.359       .  A
N1          C191   1.444       .  S
C2            C3   1.389       .  A
C2          C227   1.492       .  S
C3            C4   1.376       .  A
C3            H6   1.081       .  S
C4            C5   1.383       .  A
C4            H7   1.082       .  S
C5          C211   1.488       .  S
N8           C12   1.354       .  A
N8            C9   1.354       .  A
N8          C173   1.438       .  S
C9           C10   1.390   1_565  A
C9          C229   1.489       .  S
C10          C11   1.377       .  A
C10          H13   1.081       .  S
C11          C12   1.383   1_545  A
C11          H14   1.081       .  S
C12         C157   1.485       .  S
N15          C19   1.362       .  A
N15          C16   1.361       .  A
N15         C101   1.446       .  S
C16          C17   1.387       .  A
C16         C137   1.494       .  S
C17          C18   1.368       .  A
C17          H20   1.080       .  S
C18          C19   1.385       .  A
C18          H21   1.082       .  S
C19         C121   1.491       .  S
N22          C26   1.363       .  A
N22          C23   1.362       .  A
N22          C85   1.450       .  S
C23          C24   1.386       .  A
C23         C139   1.490       .  S
C24          C25   1.368       .  A
C24          H27   1.081       .  S
C25          C26   1.385       .  A
C25          H28   1.082       .  S
C26          C65   1.489       .  S
O29          C37   1.253       .  A
O29         Co49   1.986   1_545  S
O30         C275   1.267       .  A
O30         Co50   1.895       .  S
O31          C39   1.268       .  A
O31        Co288   2.026   1_655  S
O32          C40   1.295       .  A
O32         Co52   2.073       .  S
O33          C39   1.257       .  A
O33         Co50   1.987   1_545  S
O34          C40   1.272       .  A
O34         Co49   1.909       .  S
O35          C38   1.298   1_554  A
O35         Co52   2.088       .  S
O36          C37   1.265       .  A
O36         Co51   2.021   1_655  S
C37         C119   1.476       .  S
C38         C392   1.474       .  S
C38         O267   1.267       .  A
C39         C103   1.482       .  S
C40         C175   1.472       .  S
O41          C54   1.242       .  A
O41         Co49   1.956       .  S
O42          C55   1.266       .  A
O42         Co50   2.005   1_455  S
O43          C56   1.262       .  A
O43         Co51   1.964   1_565  S
O44          C57   1.257       .  A
O44         Co52   2.016       .  S
O45         C294   1.242       .  A
O45         Co50   1.958       .  S
O46          C56   1.274       .  A
O46         Co49   2.027   1_455  S
O47          C54   1.258       .  A
O47         Co52   2.029       .  S
O48          C55   1.264       .  A
O48        Co288   1.982   1_565  S
Co49         O53   1.924       .  S
Co50        O290   1.918       .  S
Co51        O268   2.028   1_454  S
Co51        O285   1.978   1_544  S
Co51         O53   2.113   1_445  S
Co52         O53   2.265       .  S
O53        Co287   1.919       .  S
C54          C83   1.481       .  S
C55         C193   1.476       .  S
C56         C209   1.474       .  S
C57         C304   1.477   1_554  S
C57         O282   1.244   1_554  A
C58          C59   1.406       .  A
C58          C63   1.405       .  A
C58          C66   1.489       .  S
C59          C60   1.403       .  A
C59         H305   1.083       .  S
C60          C61   1.407       .  A
C60          H69   1.081       .  S
C61          C62   1.405   1_655  A
C61          C64   1.488       .  S
C62          C63   1.397   1_455  A
C62          H70   1.084       .  S
C63          H71   1.082   1_655  S
C64          H72   1.087   1_655  S
C64          C65   1.351       .  D
C65          H73   1.084       .  S
C66         H311   1.087       .  S
C66          C67   1.346       .  D
C67         C294   1.473       .  S
C67          H75   1.085   1_655  S
H68         C296   1.083       .  S
H74         C303   1.087       .  S
C76          C77   1.404       .  A
C76          C81   1.411       .  A
C76          C84   1.499       .  S
C77          C78   1.398       .  A
C77          H86   1.084   1_655  S
C78          C79   1.409       .  A
C78          H87   1.080       .  S
C79          C80   1.408       .  A
C79          C82   1.501       .  S
C80          C81   1.408       .  A
C80          H88   1.083       .  S
C81          H89   1.080       .  S
C82          H90   1.087       .  S
C82          C83   1.350       .  D
C83          H91   1.084       .  S
C84          H92   1.086       .  S
C84          C85   1.350       .  D
C85          H93   1.083       .  S
C94          C95   1.407       .  A
C94          C99   1.409       .  A
C94         C102   1.497       .  S
C95          C96   1.403       .  A
C95         H104   1.083   1_655  S
C96          C97   1.407       .  A
C96         H105   1.082       .  S
C97          C98   1.405       .  A
C97         C100   1.493       .  S
C98          C99   1.401       .  A
C98         H106   1.083       .  S
C99         H107   1.080       .  S
C100        H108   1.087       .  S
C100        C101   1.348       .  D
C101        H109   1.084       .  S
C102        H110   1.087   1_655  S
C102        C103   1.350       .  D
C103        H111   1.084       .  S
C112        C113   1.406       .  A
C112        C117   1.407       .  A
C112        C120   1.490       .  S
C113        C114   1.396       .  A
C113        H122   1.084       .  S
C114        C115   1.405       .  A
C114        H123   1.081       .  S
C115        C116   1.407       .  A
C115        C118   1.492       .  S
C116        C117   1.403       .  A
C116        H124   1.083   1_655  S
C117        H125   1.081       .  S
C118        H126   1.087   1_655  S
C118        C119   1.349       .  D
C119        H127   1.084       .  S
C120        H128   1.086       .  S
C120        C121   1.352       .  D
C121        H129   1.083       .  S
C130        C131   1.409       .  A
C130        C135   1.405       .  A
C130        C138   1.490       .  S
C131        C132   1.400       .  A
C131        H140   1.083       .  S
C132        C133   1.405       .  A
C132        H141   1.080       .  S
C133        C134   1.407       .  A
C133        C136   1.489       .  S
C134        C135   1.397       .  A
C134        H142   1.084       .  S
C135        H143   1.080       .  S
C136        H144   1.083       .  S
C136        C137   1.353       .  D
C137        H145   1.082       .  S
C138        H146   1.084       .  S
C138        C139   1.355       .  D
C139        H147   1.081       .  S
C148        C149   1.402       .  A
C148        C153   1.410   1_545  A
C148        C156   1.486       .  S
C149        C150   1.394       .  A
C149        H158   1.084       .  S
C150        C151   1.405   1_545  A
C150        H159   1.082       .  S
C151        C152   1.402       .  A
C151        C154   1.482       .  S
C152        C153   1.400       .  A
C152        H160   1.083       .  S
C153        H161   1.081       .  S
C154        H162   1.087       .  S
C154        C155   1.345       .  D
C155        C275   1.470       .  S
C155        H163   1.086       .  S
C156        H164   1.086       .  S
C156        C157   1.344   1_545  D
C157        H165   1.083       .  S
C166        C167   1.403       .  A
C166        C171   1.406       .  A
C166        C174   1.484       .  S
C167        C168   1.401       .  A
C167        H176   1.083       .  S
C168        C169   1.406       .  A
C168        H177   1.083       .  S
C169        C170   1.401   1_565  A
C169        C172   1.479       .  S
C170        C171   1.396   1_545  A
C170        H178   1.083       .  S
C171        H179   1.083   1_565  S
C172        H180   1.087   1_565  S
C172        C173   1.342       .  D
C173        H181   1.086       .  S
C174        H182   1.087       .  S
C174        C175   1.342       .  D
C175        H183   1.086       .  S
C184        C185   1.405       .  A
C184        C189   1.406       .  A
C184        C192   1.486       .  S
C185        C186   1.401       .  A
C185        H194   1.083       .  S
C186        C187   1.407       .  A
C186        H195   1.081       .  S
C187        C188   1.403       .  A
C187        C190   1.484       .  S
C188        C189   1.396       .  A
C188        H196   1.084       .  S
C189        H197   1.082       .  S
C190        H198   1.086       .  S
C190        C191   1.347       .  D
C191        H199   1.084       .  S
C192        H200   1.087       .  S
C192        C193   1.347       .  D
C193        H201   1.085       .  S
C202        C203   1.402       .  A
C202        C207   1.412       .  A
C202        C210   1.491       .  S
C203        C204   1.393       .  A
C203        H212   1.084       .  S
C204        C205   1.406       .  A
C204        H213   1.083       .  S
C205        C206   1.404       .  A
C205        C208   1.490       .  S
C206        C207   1.406       .  A
C206        H214   1.083       .  S
C207        H215   1.080       .  S
C208        H216   1.086       .  S
C208        C209   1.345       .  D
C209        H217   1.087       .  S
C210        H218   1.087       .  S
C210        C211   1.345       .  D
C211        H219   1.083       .  S
C220        C221   1.406       .  A
C220        C225   1.406       .  A
C220        C228   1.490       .  S
C221        C222   1.398       .  A
C221        H230   1.084       .  S
C222        C223   1.406       .  A
C222        H231   1.079       .  S
C223        C224   1.408       .  A
C223        C226   1.494       .  S
C224        C225   1.401       .  A
C224        H232   1.083       .  S
C225        H233   1.080       .  S
C226        H234   1.083       .  S
C226        C227   1.353       .  D
C227        H235   1.081       .  S
C228        H236   1.084       .  S
C228        C229   1.351       .  D
C229        H237   1.083       .  S
N238        C242   1.358       .  A
N238        C239   1.357       .  A
N238        C428   1.444       .  S
C239        C240   1.389       .  A
C239        C464   1.490       .  S
C240        C241   1.376       .  A
C240        H243   1.080       .  S
C241        C242   1.383       .  A
C241        H244   1.082       .  S
C242        C448   1.487       .  S
N245        C249   1.355   1_565  A
N245        C246   1.355   1_565  A
N245        C410   1.439       .  S
C246        C247   1.389       .  A
C246        C466   1.489   1_545  S
C247        C248   1.375       .  A
C247        H250   1.081       .  S
C248        C249   1.384       .  A
C248        H251   1.081       .  S
C249        C394   1.486       .  S
N252        C256   1.363       .  A
N252        C253   1.361       .  A
N252        C338   1.446       .  S
C253        C254   1.386       .  A
C253        C374   1.494       .  S
C254        C255   1.370       .  A
C254        H257   1.081       .  S
C255        C256   1.386       .  A
C255        H258   1.082       .  S
C256        C358   1.492       .  S
N259        C263   1.364       .  A
N259        C260   1.362       .  A
N259        C322   1.448       .  S
C260        C261   1.385       .  A
C260        C376   1.492       .  S
C261        C262   1.370       .  A
C261        H264   1.081       .  S
C262        C263   1.384       .  A
C262        H265   1.082       .  S
C263        C302   1.491       .  S
O266        C274   1.253       .  A
O266       Co286   1.983   1_545  S
O267       Co287   1.893   1_556  S
O268        C276   1.268       .  A
O269        C277   1.296       .  A
O269       Co289   2.080       .  S
O270        C276   1.255   1_554  A
O270       Co287   1.986   1_545  S
O271        C277   1.272       .  A
O271       Co286   1.907       .  S
O272        C275   1.296       .  A
O272       Co289   2.079       .  S
O273        C274   1.266       .  A
O273       Co288   2.026   1_655  S
C274        C356   1.478       .  S
C276        C340   1.481       .  S
C277        C412   1.475       .  S
O278        C291   1.242       .  A
O278       Co286   1.956       .  S
O279        C292   1.267       .  A
O279       Co287   2.007   1_456  S
O280        C293   1.262       .  A
O280       Co288   1.964   1_565  S
O281        C294   1.257       .  A
O281       Co289   2.015       .  S
O282       Co287   1.960   1_556  S
O283        C293   1.274       .  A
O283       Co286   2.027   1_455  S
O284        C291   1.257       .  A
O284       Co289   2.023       .  S
O285        C292   1.263       .  A
Co286       O290   1.925       .  S
Co288       O290   2.109   1_445  S
Co289       O290   2.261       .  S
C291        C320   1.480       .  S
C292        C430   1.474       .  S
C293        C446   1.472       .  S
C295        C296   1.407       .  A
C295        C300   1.406       .  A
C295        C303   1.493       .  S
C296        C297   1.405       .  A
C297        C298   1.407       .  A
C297        H306   1.082       .  S
C298        C299   1.404   1_655  A
C298        C301   1.488       .  S
C299        C300   1.398   1_455  A
C299        H307   1.083       .  S
C300        H308   1.082   1_655  S
C301        H309   1.087   1_655  S
C301        C302   1.351       .  D
C302        H310   1.085       .  S
C303        C304   1.348       .  D
C304        H312   1.085   1_655  S
C313        C314   1.403       .  A
C313        C318   1.409       .  A
C313        C321   1.496       .  S
C314        C315   1.399       .  A
C314        H323   1.084   1_655  S
C315        C316   1.411       .  A
C315        H324   1.078   1_655  S
C316        C317   1.408       .  A
C316        C319   1.503       .  S
C317        C318   1.405       .  A
C317        H325   1.083       .  S
C318        H326   1.080       .  S
C319        H327   1.087       .  S
C319        C320   1.349       .  D
C320        H328   1.081   1_655  S
C321        H329   1.086       .  S
C321        C322   1.349       .  D
C322        H330   1.083       .  S
C331        C332   1.405       .  A
C331        C336   1.409       .  A
C331        C339   1.495       .  S
C332        C333   1.402       .  A
C332        H341   1.083   1_655  S
C333        C334   1.410       .  A
C333        H342   1.080       .  S
C334        C335   1.406       .  A
C334        C337   1.497       .  S
C335        C336   1.402       .  A
C335        H343   1.083       .  S
C336        H344   1.081       .  S
C337        H345   1.087       .  S
C337        C338   1.349       .  D
C338        H346   1.082       .  S
C339        H347   1.087   1_655  S
C339        C340   1.349       .  D
C340        H348   1.085       .  S
C349        C350   1.405       .  A
C349        C354   1.406       .  A
C349        C357   1.491       .  S
C350        C351   1.399       .  A
C350        H359   1.084       .  S
C351        C352   1.408       .  A
C351        H360   1.080       .  S
C352        C353   1.408       .  A
C352        C355   1.496       .  S
C353        C354   1.403       .  A
C353        H361   1.083   1_655  S
C354        H362   1.081       .  S
C355        H363   1.087       .  S
C355        C356   1.350       .  D
C356        H364   1.083       .  S
C357        H365   1.086       .  S
C357        C358   1.352       .  D
C358        H366   1.084       .  S
C367        C368   1.407       .  A
C367        C372   1.405       .  A
C367        C375   1.489       .  S
C368        C369   1.401       .  A
C368        H377   1.083   1_655  S
C369        C370   1.406       .  A
C369        H378   1.081       .  S
C370        C371   1.406       .  A
C370        C373   1.490       .  S
C371        C372   1.399       .  A
C371        H379   1.083       .  S
C372        H380   1.081       .  S
C373        H381   1.084       .  S
C373        C374   1.352       .  D
C374        H382   1.082       .  S
C375        H383   1.085       .  S
C375        C376   1.353       .  D
C376        H384   1.083       .  S
C385        C386   1.404       .  A
C385        C390   1.409   1_545  A
C385        C393   1.487       .  S
C386        C387   1.396       .  A
C386        H395   1.084       .  S
C387        C388   1.405   1_545  A
C387        H396   1.082       .  S
C388        C389   1.403       .  A
C388        C391   1.484       .  S
C389        C390   1.400       .  A
C389        H397   1.083       .  S
C390        H398   1.081       .  S
C391        H399   1.087       .  S
C391        C392   1.347       .  D
C392        H400   1.085       .  S
C393        H401   1.085       .  S
C393        C394   1.346       .  D
C394        H402   1.083   1_545  S
C403        C404   1.403       .  A
C403        C408   1.406   1_565  A
C403        C411   1.484       .  S
C404        C405   1.400       .  A
C404        H413   1.083       .  S
C405        C406   1.406       .  A
C405        H414   1.083       .  S
C406        C407   1.403   1_565  A
C406        C409   1.481   1_565  S
C407        C408   1.400       .  A
C407        H415   1.083       .  S
C408        H416   1.083       .  S
C409        H417   1.087       .  S
C409        C410   1.344   1_545  D
C410        H418   1.086       .  S
C411        H419   1.087       .  S
C411        C412   1.342       .  D
C412        H420   1.087       .  S
C421        C422   1.405       .  A
C421        C426   1.406       .  A
C421        C429   1.486       .  S
C422        C423   1.402       .  A
C422        H431   1.083       .  S
C423        C424   1.407       .  A
C423        H432   1.082       .  S
C424        C425   1.402       .  A
C424        C427   1.483       .  S
C425        C426   1.394       .  A
C425        H433   1.084       .  S
C426        H434   1.082       .  S
C427        H435   1.086       .  S
C427        C428   1.345       .  D
C428        H436   1.084       .  S
C429        H437   1.087       .  S
C429        C430   1.347       .  D
C430        H438   1.085       .  S
C439        C440   1.403       .  A
C439        C444   1.411       .  A
C439        C447   1.489       .  S
C440        C441   1.394       .  A
C440        H449   1.084       .  S
C441        C442   1.405       .  A
C441        H450   1.083       .  S
C442        C443   1.403       .  A
C442        C445   1.486       .  S
C443        C444   1.404       .  A
C443        H451   1.083   1_565  S
C444        H452   1.080       .  S
C445        H453   1.086       .  S
C445        C446   1.344       .  D
C446        H454   1.087       .  S
C447        H455   1.087       .  S
C447        C448   1.345       .  D
C448        H456   1.083       .  S
C457        C458   1.406       .  A
C457        C462   1.406       .  A
C457        C465   1.490       .  S
C458        C459   1.397       .  A
C458        H467   1.084       .  S
C459        C460   1.407       .  A
C459        H468   1.079       .  S
C460        C461   1.407       .  A
C460        C463   1.492       .  S
C461        C462   1.400       .  A
C461        H469   1.083       .  S
C462        H470   1.080       .  S
C463        H471   1.083       .  S
C463        C464   1.352       .  D
C464        H472   1.081       .  S
C465        H473   1.084       .  S
C465        C466   1.351       .  D
C466        H474   1.082       .  S
