geometry optimzed in LAMMPS
_audit_creation_date              2020-11-30 
_audit_creation_method            'lammps2cif' 
_symmetry_space_group_name_H-M    'P1' 
_symmetry_Int_Tables_number       1 
_symmetry_cell_setting            triclinic 
loop_ 
_symmetry_equiv_pos_as_xyz 
  x,y,z 
_cell_length_a                    22.7725902 
_cell_length_b                    44.298656511563486 
_cell_length_c                    28.533791079497846 
_cell_angle_alpha                 92.40112753350601 
_cell_angle_beta                  91.21143118167716 
_cell_angle_gamma                 118.08836751850411 
loop_ 
_atom_site_label 
_atom_site_type_symbol 
_atom_site_fract_x 
_atom_site_fract_y 
_atom_site_fract_z 
_atom_site_charge 
C1          C  0.91241816  0.39250741  0.72499635     0.80800
N2          N  0.95522574  0.38390045  0.70320616    -0.77500
C3          C  0.93722120  0.36496154  0.66188469     0.83200
N4          N  0.87476050  0.35368683  0.64246268    -0.77500
C5          C  0.83164822  0.36245197  0.66388827     0.83300
N6          N  0.85055076  0.38166831  0.70514864    -0.79200
C7          C  0.71443685  0.47307771  0.49271268     0.80800
N8          N  0.69878172  0.49691860  0.51146009    -0.77500
C9          C  0.66521829  0.49124084  0.55170247     0.83200
N10         N  0.64655531  0.46141144  0.57304490    -0.77500
C11         C  0.66268872  0.43770170  0.55458435     0.83300
N12         N  0.69615088  0.44356249  0.51451594    -0.79200
C13         C  0.48536221  0.17624419  0.73484435     0.80800
N14         N  0.50191763  0.20552156  0.71292303    -0.77500
C15         C  0.53318461  0.21106555  0.67187677     0.83200
N16         N  0.54916053  0.18740126  0.65289348    -0.77500
C17         C  0.53179289  0.15772879  0.67438773     0.83300
N18         N  0.49985424  0.15220405  0.71530322    -0.79200
N19         N  0.54525602  0.34960286  0.59238976    -0.36100
N20         N  0.68671576  0.36919616  0.61062165    -0.56600
N21         N  0.65013594  0.29971280  0.63594374    -0.36100
N22         N  0.50845172  0.28003341  0.61765584    -0.56600
C23         C  0.57434015  0.38031189  0.57268046     0.27500
C24         C  0.48024542  0.33346510  0.57719517     0.27500
C25         C  0.71470748  0.31607049  0.65226042     0.27500
C26         C  0.62103676  0.26871472  0.65483857     0.27500
C27         C  0.69430151  0.39920901  0.59536332     0.36100
C28         C  0.74831540  0.37432964  0.62356776     0.36100
C29         C  0.44666369  0.27514560  0.60571123     0.36100
C30         C  0.50109330  0.24977706  0.63183977     0.36100
C31         C  0.52689546  0.38400917  0.54580661    -0.21300
C32         C  0.46783145  0.35459289  0.54863623    -0.21300
C33         C  0.72688541  0.29477927  0.68058728    -0.21300
C34         C  0.66814055  0.26501787  0.68214107    -0.21300
C35         C  0.76112229  0.42351515  0.59866720    -0.22400
C36         C  0.79527398  0.40775143  0.61642833    -0.22400
C37         C  0.39982469  0.24159437  0.61229548    -0.22400
C38         C  0.43423869  0.22551713  0.62868225    -0.22400
C39         C  0.64264626  0.40499325  0.57679048    -0.17700
C40         C  0.43169601  0.29982946  0.58669706    -0.17700
C41         C  0.55288926  0.24384976  0.64992377    -0.17700
C42         C  0.76299835  0.35002555  0.64397053    -0.17700
H43         H  0.53436950  0.40520857  0.52485250     0.15200
H44         H  0.42160505  0.34892267  0.53007638     0.15200
H45         H  0.77266129  0.30055213  0.69984832     0.15200
H46         H  0.66052667  0.24364049  0.70274304     0.15200
H47         H  0.78315725  0.44992956  0.58929433     0.13500
H48         H  0.84859063  0.41967155  0.62363113     0.13400
H49         H  0.34641469  0.22981296  0.60564545     0.13500
H50         H  0.41234950  0.19898769  0.63751881     0.13400
H51         H  0.56836116  0.34043646  0.61519689     0.26700
H52         H  0.62715852  0.30891735  0.61308718     0.26700
C53         C  0.28297475  0.26149930  0.50549433     0.80800
N54         N  0.24082374  0.27022561  0.52780466    -0.77500
C55         C  0.25878929  0.28744942  0.57045531     0.83200
N56         N  0.32056351  0.29707646  0.59019364    -0.77500
C57         C  0.36271455  0.28798393  0.56790888     0.83300
N58         N  0.34361990  0.27019858  0.52567157    -0.79200
C59         C  0.28469391  0.48081133  0.51316396     0.80800
N60         N  0.24115556  0.45231414  0.53415011    -0.77500
C61         C  0.25812800  0.44398106  0.57577942     0.83200
N62         N  0.32015753  0.46431038  0.59632023    -0.77500
C63         C  0.36902169  0.99093106  0.57355533     0.83300
N64         N  0.35223964  0.99622958  0.52999785    -0.79200
C65         C  0.91430436  0.17491539  0.72415222     0.80800
N66         N  0.85457725  0.15282406  0.70290612    -0.77500
C67         C  0.83695910  0.15844946  0.65974839     0.83200
N68         N  0.87924994  0.18709953  0.63794574    -0.77500
C69         C  0.94025219  0.20895337  0.65871216     0.83300
N70         N  0.95705150  0.20270195  0.70173688    -0.79200
N71         N  0.19914884  0.35141307  0.60301005    -0.35800
N72         N  0.09907474  0.27952556  0.61601850    -0.56600
N73         N  0.99790830  0.30112728  0.63072775    -0.36100
N74         N  0.09804090  0.37303595  0.61764432    -0.56600
C75         C  0.23241487  0.33469321  0.58727432     0.27500
C76         C  0.23191848  0.38388294  0.58854633     0.27500
C77         C  0.96517503  0.26863233  0.64507980     0.27500
C78         C  0.96473339  0.31785082  0.64662091     0.27500
C79         C  0.15149157  0.27434814  0.60580271     0.36100
C80         C  0.04825570  0.24863132  0.62536133     0.36100
C81         C  0.14874597  0.40389528  0.60792640     0.36100
C82         C  0.04557918  0.37818963  0.62787214     0.36100
C83         C  0.28764361  0.35709292  0.56394917    -0.21300
C84         C  0.28733676  0.38786842  0.56477897    -0.21300
C85         C  0.90980960  0.26459555  0.66899893    -0.21300
C86         C  0.90965491  0.29543310  0.67009063    -0.21300
C87         C  0.13384846  0.23995937  0.60885070    -0.22400
C88         C  0.06865136  0.22372854  0.62128194    -0.22400
C89         C  0.12824381  0.42875490  0.61188308    -0.22400
C90         C  0.06310974  0.41253781  0.62449318    -0.22400
C91         C  0.21402985  0.29955052  0.59126627    -0.17700
C92         C  0.21262579  0.40994810  0.59389756    -0.17700
C93         C  0.98295373  0.35297396  0.64237262    -0.17700
C94         C  0.98446428  0.24259054  0.63940674    -0.17700
H95         H  0.32332843  0.35160985  0.54630042     0.15200
H96         H  0.32259914  0.41019307  0.54781538     0.15200
H97         H  0.87437424  0.24215563  0.68573039     0.15200
H98         H  0.87415409  0.30093624  0.68795022     0.15200
H99         H  0.16466988  0.22775613  0.60254062     0.13500
H100        H  0.03959249  0.19666505  0.62669348     0.13400
H101        H  0.15715459  0.45578631  0.60624447     0.13500
H102        H  0.03224887  0.42473873  0.63062768     0.13400
H103        H  0.15680836  0.34115977  0.62243917     0.26700
H104        H  0.04010861  0.31136799  0.61115222     0.26700
N105        N  0.65204870  0.12619650  0.63772574    -0.36100
N106        N  0.51100249  0.07310733  0.62486753    -0.56600
N107        N  0.55363347  0.02301917  0.59602781    -0.36100
N108        N  0.69469379  0.07617173  0.60874815    -0.56600
C109        C  0.62120414  0.14252753  0.65875917     0.27500
C110        C  0.71756715  0.14373677  0.65174191     0.27500
C111        C  0.48785561  0.00508658  0.58289299     0.27500
C112        C  0.58419168  0.00640580  0.57540343     0.27500
C113        C  0.50153578  0.09997030  0.63877922     0.36100
C114        C  0.45002209  0.04664201  0.61300740     0.36100
C115        C  0.75579136  0.10292408  0.61941573     0.36100
C116        C  0.70429002  0.04968926  0.59307028     0.36100
C117        C  0.66779571  0.17103625  0.68544605    -0.21300
C118        C  0.72823192  0.17178238  0.68107575    -0.21300
C119        C  0.46932857  0.47833184  0.55159561    -0.21300
C120        C  0.52905776  0.47870584  0.54480346    -0.21300
C121        C  0.43412109  0.09048209  0.63587278    -0.22400
C122        C  0.40154820  0.05674122  0.61965589    -0.22400
C123        C  0.80449983  0.09338838  0.61032191    -0.22400
C124        C  0.77195019  0.05971218  0.59369840    -0.22400
C125        C  0.55223745  0.13269898  0.65541123    -0.17700
C126        C  0.76839465  0.13512576  0.64018135    -0.17700
C127        C  0.65342190  0.01677574  0.57715929    -0.17700
C128        C  0.43733570  0.01413312  0.59342344    -0.17700
H129        H  0.65892539  0.18892393  0.70720845     0.15200
H130        H  0.77445623  0.19039903  0.69879067     0.15200
H131        H  0.42202258  0.45992570  0.53504801     0.15200
H132        H  0.53614639  0.46063555  0.52208809     0.15200
H133        H  0.41070986  0.10622734  0.64441019     0.13500
H134        H  0.34829195  0.04153591  0.61288024     0.13400
H135        H  0.85791266  0.10893655  0.61569354     0.13500
H136        H  0.79554515  0.04435682  0.58342404     0.13400
H137        H  0.62956533  0.10477315  0.61455316     0.26700
H138        H  0.57658810  0.04510347  0.61790991     0.26700
O139        O  0.27615512  0.12866943  0.07422148    -0.80300
O140        O  0.03585930  0.04839270  0.20556925    -0.65000
O141        O  0.15969838  0.07716530  0.10977736    -1.11600
C142        C  0.01939291  0.10898164  0.03326115     1.06500
O143        O  0.94284653  0.03171268  0.16177307    -0.78200
O144        O  0.98415120  0.02406463  0.07274104    -0.65800
Ni145      Ni  0.25240127  0.10233479  0.12974070     1.34900
C146        C  0.02471437  0.03173834  0.03973002     0.85300
O147        O  0.13678452  0.03792401  0.18654724    -0.78800
O148        O  0.24260419  0.07760006  0.18619063    -0.89100
C149        C  0.97319265  0.03429923  0.20103324     0.84900
O150        O  0.24210667  0.13707074  0.16495471    -0.67300
O151        O  0.97529526  0.08099311  0.04842001    -0.86500
C152        C  0.20064310  0.13122512  0.19698112     0.85700
C153        C  0.19631182  0.05070583  0.20234109     1.07300
H154        H  0.06068475  0.10474721  0.14693268     0.39100
O155        O  0.05725344  0.08566298  0.12745857    -1.09200
O156        O  0.07238204  0.06200510  0.03704767    -0.65900
Ni157      Ni  0.12001514  0.10153885  0.08003226     1.26300
O158        O  0.14819983  0.10254464  0.19930655    -0.66100
O159        O  0.07805205  0.12481158  0.05149351    -0.78400
C160        C  0.24550283  0.12891087  0.03638099     0.85100
O161        O  0.18308071  0.11714013  0.03311180    -0.65500
Ni162      Ni  0.96600924  0.05734973  0.10564701     1.27400
Ni163      Ni  0.09765852  0.06223406  0.15788759     1.26100
H164        H  0.15356663  0.05735357  0.09011148     0.39600
C165        C  0.95480730  0.11164093  0.91128904    -0.13800
C166        C  0.98172686  0.14691091  0.90669830     0.16600
C167        C  0.01954088  0.16993338  0.94445533     0.02900
C168        C  0.03072508  0.15720956  0.98595576    -0.12300
C169        C  0.00355896  0.12177019  0.99057107    -0.03400
C170        C  0.96524038  0.09888614  0.95266044     0.02100
C171        C  0.96760570  0.15830013  0.86211121     0.08900
N172        N  0.04490653  0.20604240  0.94179160     0.65300
H173        H  0.06026056  0.17504044  0.01477918     0.18200
N174        N  0.94027420  0.06272441  0.95429689     0.75800
H175        H  0.92606290  0.09384396  0.88218045     0.09700
C176        C  0.01624516  0.17226977  0.82843806     0.03400
C177        C  0.99821398  0.17840536  0.78405048    -0.05300
C178        C  0.93180750  0.16979627  0.77216871    -0.23700
C179        C  0.88345131  0.15630311  0.80633997     0.12700
C180        C  0.90180859  0.15078984  0.85088805    -0.12800
N181        N  0.08274272  0.17793917  0.83753333     0.64300
H182        H  0.03572557  0.18847742  0.75804714     0.12200
N183        N  0.81582610  0.14861624  0.79673370     0.61000
H184        H  0.86414424  0.13982786  0.87663640     0.08400
O185        O  0.97218656  0.04903516  0.93537787    -0.40500
O186        O  0.88029896  0.04412553  0.96376660    -0.39700
O187        O  0.01080527  0.21976525  0.95677062    -0.39600
O188        O  0.10607380  0.22467599  0.93570430    -0.37400
O189        O  0.77135446  0.11778386  0.79046883    -0.38300
O190        O  0.79900333  0.17175892  0.80356802    -0.34400
O191        O  0.09516618  0.15309526  0.83267013    -0.35800
O192        O  0.13028402  0.20813760  0.83994956    -0.40100
C193        C  0.17683233  0.99329132  0.30310028    -0.13800
C194        C  0.23616222  0.01337855  0.32978344     0.16600
C195        C  0.28441882  0.04417326  0.31213560     0.02900
C196        C  0.27208219  0.05460628  0.26912503    -0.12300
C197        C  0.21127623  0.03550035  0.24343041    -0.03400
C198        C  0.16364342  0.00408743  0.26059903     0.02100
C199        C  0.24791481  0.00141143  0.37517344     0.08900
N200        N  0.34461367  0.06622199  0.33876586     0.65300
H201        H  0.30936057  0.07873074  0.25700829     0.18200
N202        N  0.10160903  0.98272286  0.23552392     0.75800
H203        H  0.14029946  0.96898114  0.31532863     0.09700
C204        C  0.18263410  0.48500836  0.40924442     0.03400
C205        C  0.20037105  0.47729481  0.45276859    -0.05300
C206        C  0.27510136  0.98093512  0.46168838    -0.23700
C207        C  0.32079930  0.98918690  0.42572919     0.12700
C208        C  0.30669939  0.99909332  0.38284902    -0.12800
N209        N  0.11424255  0.47483243  0.39779091     0.64300
H210        H  0.16147585  0.46311202  0.47648785     0.12200
N211        N  0.38062310  0.98648662  0.43169605     0.61000
H212        H  0.34179764  0.00485845  0.35528942     0.08400
O213        O  0.09813865  0.96057702  0.20474961    -0.40500
O214        O  0.04863091  0.98149886  0.25008526    -0.39700
O215        O  0.39968974  0.07016591  0.32442246    -0.39600
O216        O  0.34391486  0.08650446  0.37087574    -0.37400
O217        O  0.37866719  0.95769858  0.42475129    -0.38300
O218        O  0.43624814  0.01328107  0.43500888    -0.34400
O219        O  0.07479356  0.44391453  0.38564026    -0.35800
O220        O  0.09112936  0.49502218  0.40817375    -0.40100
C221        C  0.28292188  0.19249647  0.30283391    -0.13800
C222        C  0.22855789  0.19516860  0.32068168     0.16600
C223        C  0.16797687  0.18096475  0.29392837     0.02900
C224        C  0.16108307  0.16198166  0.25176504    -0.12300
C225        C  0.21425274  0.15741264  0.23531460    -0.03400
C226        C  0.27637004  0.17381179  0.26051844     0.02100
C227        C  0.23536674  0.21067272  0.36873509     0.08900
N228        N  0.11190955  0.18376336  0.31051548     0.65300
H229        H  0.11307283  0.14950718  0.23277815     0.18200
N230        N  0.33116125  0.16883866  0.24638149     0.75800
H231        H  0.32993425  0.20364417  0.32306212     0.09700
C232        C  0.24717914  0.19520456  0.40751931     0.03400
C233        C  0.26230253  0.21213004  0.45195809    -0.05300
C234        C  0.26447756  0.24405117  0.45867002    -0.23700
C235        C  0.25038198  0.25915521  0.42048769     0.12700
C236        C  0.23580217  0.24234078  0.37569522    -0.12800
N237        N  0.24329459  0.16208885  0.40229520     0.64300
H238        H  0.27222298  0.20025206  0.48141922     0.12200
N239        N  0.25529828  0.29251074  0.42624453     0.61000
H240        H  0.22756288  0.25460706  0.34604307     0.08400
O241        O  0.33812178  0.14447785  0.26217027    -0.40500
O242        O  0.37973502  0.19285101  0.22805159    -0.39700
O243        O  0.09784735  0.20572365  0.29415202    -0.39600
O244        O  0.06964459  0.16025214  0.33375332    -0.37400
O245        O  0.20329968  0.29558130  0.43048364    -0.38300
O246        O  0.31175910  0.31859340  0.43234034    -0.34400
O247        O  0.29623172  0.15959998  0.40160893    -0.35800
O248        O  0.18883228  0.13587242  0.40875208    -0.40100
C249        C  0.28863553  0.15063935  0.90964884    -0.13800
C250        C  0.35245507  0.15348625  0.90936170     0.16600
C251        C  0.38366845  0.15218571  0.95170639     0.02900
C252        C  0.34936509  0.14613330  0.99320978    -0.12300
C253        C  0.28385038  0.14145688  0.99352560    -0.03400
C254        C  0.25434031  0.14503226  0.95119678     0.02100
C255        C  0.38663138  0.15884694  0.86476153     0.08900
N256        N  0.44918888  0.15549140  0.95270367     0.65300
H257        H  0.37344895  0.14371262  0.02492322     0.18200
N258        N  0.19020950  0.14355101  0.94964368     0.75800
H259        H  0.26535231  0.15286837  0.87737272     0.09700
C260        C  0.36432612  0.13280084  0.82850657     0.03400
C261        C  0.39803774  0.13871305  0.78671681    -0.05300
C262        C  0.45234408  0.17075180  0.77978485    -0.23700
C263        C  0.47372339  0.19707838  0.81574927     0.12700
C264        C  0.44134785  0.19074985  0.85811284    -0.12800
N265        N  0.30730005  0.10034785  0.83354674     0.64300
H266        H  0.38072343  0.11845039  0.75912743     0.12200
N267        N  0.52893968  0.23011443  0.81016025     0.61000
H268        H  0.45830123  0.21098763  0.88571045     0.08400
O269        O  0.14011935  0.11658894  0.93331597    -0.40500
O270        O  0.18644226  0.17103903  0.95419984    -0.39700
O271        O  0.49790390  0.18322437  0.96848756    -0.39600
O272        O  0.45647770  0.12911333  0.94637292    -0.37400
O273        O  0.51861680  0.25371164  0.79528186    -0.38300
O274        O  0.58532957  0.23745616  0.82847095    -0.34400
O275        O  0.25164639  0.09457963  0.81552662    -0.35800
O276        O  0.31506922  0.07567167  0.84714180    -0.40100
C277        C  0.78479536  0.00911233  0.37602690    -0.13800
C278        C  0.80416863  0.48349941  0.35956238     0.16600
C279        C  0.76349693  0.45096431  0.37580378     0.02900
C280        C  0.73509786  0.44822726  0.41933725    -0.12300
C281        C  0.74680335  0.47763276  0.44730341    -0.03400
C282        C  0.78816072  0.51031977  0.43082467     0.02100
C283        C  0.83751786  0.48767193  0.31501413     0.08900
N284        N  0.75051878  0.42054782  0.34841934     0.65300
H285        H  0.70316459  0.42286662  0.43101205     0.18200
N286        N  0.72413595  0.02667368  0.43018785     0.75800
H287        H  0.78943882  0.02949277  0.35416670     0.09700
C288        C  0.82460380  0.98730672  0.27526046     0.03400
C289        C  0.86459397  0.99906554  0.23674547    -0.05300
C290        C  0.93373606  0.02045847  0.24296346    -0.23700
C291        C  0.93809222  0.49816469  0.27508804     0.12700
C292        C  0.89973943  0.48855663  0.31476920    -0.12800
N293        N  0.75429920  0.96664339  0.26753898     0.64300
H294        H  0.84099474  0.99181815  0.20180848     0.12200
N295        N  0.00210501  0.49953175  0.27698549     0.61000
H296        H  0.91974794  0.48309694  0.34620568     0.08400
O297        O  0.67008764  0.02131284  0.40980642    -0.40500
O298        O  0.75917636  0.05486117  0.45304341    -0.39700
O299        O  0.78215165  0.40452305  0.35828775    -0.39600
O300        O  0.69930762  0.40628814  0.32113397    -0.37400
O301        O  0.05067090  0.08446185  0.30332351    -0.38300
O302        O  0.00612342  0.47226983  0.26993600    -0.34400
O303        O  0.71916741  0.98043395  0.25578662    -0.35800
O304        O  0.72964841  0.93444760  0.26378085    -0.40100
C305        C  0.92742947  0.44626672  0.94466709    -0.13800
C306        C  0.97922227  0.45515764  0.91362416     0.16600
C307        C  0.04319744  0.48172802  0.92731587     0.02900
C308        C  0.06805904  0.01515849  0.96944077    -0.12300
C309        C  0.01561408  0.00652447  0.00025087    -0.03400
C310        C  0.93716927  0.46502135  0.98750025     0.02100
C311        C  0.96340235  0.43911242  0.86536058     0.08900
N312        N  0.11116016  0.01033017  0.89377397     0.65300
H313        H  0.11597529  0.03742587  0.97767091     0.18200
N314        N  0.88117868  0.45672264  0.01581446     0.75800
H315        H  0.87812396  0.42575059  0.93441281     0.09700
C316        C  0.99147371  0.41887222  0.84772385     0.03400
C317        C  0.97550004  0.40481935  0.80152753    -0.05300
C318        C  0.93098398  0.41009876  0.77238625    -0.23700
C319        C  0.90322561  0.43057645  0.79010490     0.12700
C320        C  0.91961959  0.44482389  0.83624472    -0.12800
N321        N  0.03342068  0.41083377  0.87686455     0.64300
H322        H  0.99638882  0.38863749  0.78901320     0.12200
N323        N  0.86032433  0.43819944  0.76133785     0.61000
H324        H  0.89858946  0.46081412  0.84933885     0.08400
O325        O  0.86491990  0.43303917  0.04378894    -0.40500
O326        O  0.84056297  0.46762764  0.00576331    -0.39700
O327        O  0.10927458  0.02877956  0.86186438    -0.39600
O328        O  0.14962818  0.49236740  0.90789522    -0.37400
O329        O  0.79861301  0.42379376  0.76777868    -0.38300
O330        O  0.88528131  0.46379814  0.73642104    -0.34400
O331        O  0.00699143  0.38630640  0.90347724    -0.35800
O332        O  0.09366918  0.42180671  0.86729859    -0.40100
C333        C  0.92583144  0.89744846  0.72885238     0.80800
N334        N  0.96722920  0.88713387  0.70828572    -0.77500
C335        C  0.94716415  0.86597699  0.66875086     0.83200
N336        N  0.88421281  0.85443844  0.64993537    -0.77500
C337        C  0.84247909  0.86479156  0.67009363     0.83300
N338        N  0.86347519  0.88609633  0.70947731    -0.79200
C339        C  0.71674084  0.97362609  0.49398764     0.80800
N340        N  0.70285658  0.99746840  0.51496069    -0.77500
C341        C  0.67361154  0.99201533  0.55692462     0.83200
N342        N  0.65724154  0.96229731  0.57791246    -0.77500
C343        C  0.67184512  0.93859228  0.55746826     0.83300
N344        N  0.70118652  0.94427251  0.51566733    -0.79200
C345        C  0.49289744  0.67844937  0.74140770     0.80800
N346        N  0.51134776  0.70832807  0.72051849    -0.77500
C347        C  0.54214230  0.71393243  0.67925427     0.83200
N348        N  0.55482252  0.68961992  0.65860944    -0.77500
C349        C  0.53574227  0.65942560  0.67894991     0.83300
N350        N  0.50494511  0.65393944  0.72033601    -0.79200
N351        N  0.55469936  0.85022380  0.59398525    -0.36100
N352        N  0.69695311  0.87076847  0.61520530    -0.56600
N353        N  0.66014336  0.80225182  0.64339177    -0.36100
N354        N  0.51782678  0.78168040  0.62170099    -0.56600
C355        C  0.58413599  0.88091860  0.57433867     0.27500
C356        C  0.48971843  0.83405853  0.57840843     0.27500
C357        C  0.72438400  0.81887857  0.66050648     0.27500
C358        C  0.63012802  0.77188976  0.66382510     0.27500
C359        C  0.70436669  0.90026834  0.59810702     0.36100
C360        C  0.75868656  0.87611926  0.62842798     0.36100
C361        C  0.45634102  0.77588417  0.60697318     0.36100
C362        C  0.51108969  0.75165559  0.63623896     0.36100
C363        C  0.53696449  0.88455397  0.54700499    -0.21300
C364        C  0.47772660  0.85516954  0.54960640    -0.21300
C365        C  0.73542699  0.79839298  0.69111198    -0.21300
C366        C  0.67619257  0.76887119  0.69323449    -0.21300
C367        C  0.77126355  0.92450702  0.60055962    -0.22400
C368        C  0.80559194  0.90920382  0.61964055    -0.22400
C369        C  0.41035838  0.74193424  0.61203120    -0.22400
C370        C  0.44499518  0.72657773  0.63040587    -0.22400
C371        C  0.65247584  0.90569804  0.57891923    -0.17700
C372        C  0.44101280  0.80030525  0.58746064    -0.17700
C373        C  0.56234764  0.74670571  0.65746191    -0.17700
C374        C  0.77337304  0.85231253  0.65051464    -0.17700
H375        H  0.54481742  0.90563909  0.52573199     0.15200
H376        H  0.43174870  0.84946875  0.53064821     0.15200
H377        H  0.78094032  0.80446616  0.71105510     0.15200
H378        H  0.66766056  0.74794894  0.71510247     0.15200
H379        H  0.79324125  0.95055617  0.58966348     0.13500
H380        H  0.85896414  0.92120518  0.62660103     0.13400
H381        H  0.35737368  0.72944055  0.60324940     0.13500
H382        H  0.42370079  0.70000491  0.63895502     0.13400
H383        H  0.57786307  0.84121847  0.61695613     0.26700
H384        H  0.63797307  0.81063617  0.61863848     0.26700
C385        C  0.29179235  0.75926354  0.50623992     0.80800
N386        N  0.24851679  0.76752203  0.52810581    -0.77500
C387        C  0.26600802  0.78562529  0.57024524     0.83200
N388        N  0.32849730  0.79649522  0.58981973    -0.77500
C389        C  0.37190411  0.78802413  0.56797962     0.83300
N390        N  0.35308278  0.76931706  0.52639893    -0.79200
C391        C  0.29196248  0.97469226  0.50912616     0.80800
N392        N  0.24780195  0.94758733  0.53212820    -0.77500
C393        C  0.26411348  0.94161775  0.57560299     0.83200
N394        N  0.32545930  0.96310287  0.59611714    -0.77500
C395        C  0.36336664  0.49346048  0.57593289     0.83300
N396        N  0.34526560  0.50126104  0.53451466    -0.79200
C397        C  0.91304655  0.66990641  0.71540171     0.80800
N398        N  0.85310886  0.64970991  0.69319128    -0.77500
C399        C  0.83662838  0.65785684  0.65147122     0.83200
N400        N  0.88070304  0.68728354  0.63192328    -0.77500
C401        C  0.94219780  0.70731303  0.65354969     0.83300
N402        N  0.95757266  0.69848095  0.69526040    -0.79200
N403        N  0.20574968  0.84951605  0.60375419    -0.35800
N404        N  0.10450028  0.77809953  0.61434574    -0.56600
N405        N  0.00504110  0.80121611  0.63309435    -0.36100
N406        N  0.10655935  0.87260428  0.62262273    -0.56600
C407        C  0.23943175  0.83293413  0.58814942     0.27500
C408        C  0.23924263  0.88224516  0.59044887     0.27500
C409        C  0.97135987  0.76828149  0.64559066     0.27500
C410        C  0.97322146  0.81813423  0.65119022     0.27500
C411        C  0.15635757  0.77240477  0.60374166     0.36100
C412        C  0.05245439  0.74731229  0.62269748     0.36100
C413        C  0.15707399  0.90298657  0.61125289     0.36100
C414        C  0.05509829  0.87840169  0.63375450     0.36100
C415        C  0.29582526  0.85574190  0.56631675    -0.21300
C416        C  0.29567097  0.88654338  0.56773292    -0.21300
C417        C  0.91696157  0.76427164  0.67077166    -0.21300
C418        C  0.91810361  0.79544948  0.67429224    -0.21300
C419        C  0.13710716  0.73777565  0.60558417    -0.22400
C420        C  0.07156589  0.72194357  0.61751252    -0.22400
C421        C  0.13756946  0.92823789  0.61524077    -0.22400
C422        C  0.07321984  0.91273688  0.62956898    -0.22400
C423        C  0.22010756  0.79753115  0.59052770    -0.17700
C424        C  0.21980094  0.90830354  0.59564493    -0.17700
C425        C  0.99254387  0.85357844  0.64891764    -0.17700
C426        C  0.98878090  0.74169557  0.63703189    -0.17700
H427        H  0.33210178  0.85054793  0.54902210     0.15200
H428        H  0.33184132  0.90913233  0.55179319     0.15200
H429        H  0.88151618  0.74159027  0.68693412     0.15200
H430        H  0.88333441  0.80091748  0.69333761     0.15200
H431        H  0.16712747  0.72516277  0.59895699     0.13500
H432        H  0.04153520  0.69482087  0.62209591     0.13400
H433        H  0.16659602  0.95504892  0.60837044     0.13500
H434        H  0.04310534  0.92533748  0.63586264     0.13400
H435        H  0.16239666  0.83903113  0.62201898     0.26700
H436        H  0.04681894  0.81142209  0.61309279     0.26700
N437        N  0.65147964  0.62720487  0.63414338    -0.36100
N438        N  0.50936292  0.57421632  0.62667763    -0.56600
N439        N  0.54861259  0.52380627  0.59328255    -0.36100
N440        N  0.69089318  0.57689385  0.60081139    -0.56600
C441        C  0.62292600  0.64418316  0.65659412     0.27500
C442        C  0.71822927  0.64525739  0.64418939     0.27500
C443        C  0.48229080  0.50650720  0.58143029     0.27500
C444        C  0.57758343  0.50721316  0.57040452     0.27500
C445        C  0.50153949  0.60099526  0.64361527     0.36100
C446        C  0.44746878  0.54780368  0.61714780     0.36100
C447        C  0.75278166  0.60309217  0.61121864     0.36100
C448        C  0.69862030  0.54959414  0.58629686     0.36100
C449        C  0.67221395  0.67372050  0.67988018    -0.21300
C450        C  0.73183608  0.67434792  0.67213293    -0.21300
C451        C  0.47671086  0.97642925  0.55479130    -0.21300
C452        C  0.53707287  0.97723974  0.55012123    -0.21300
C453        C  0.43418760  0.59145149  0.64504837    -0.22400
C454        C  0.40005168  0.55783417  0.62835975    -0.22400
C455        C  0.80002673  0.59239220  0.60284358    -0.22400
C456        C  0.76583020  0.55856865  0.58727721    -0.22400
C457        C  0.55380466  0.63393718  0.65813238    -0.17700
C458        C  0.76760588  0.63582688  0.63138873    -0.17700
C459        C  0.64649808  0.51682791  0.57109959    -0.17700
C460        C  0.43277720  0.51559097  0.59518888    -0.17700
H461        H  0.66592234  0.69236504  0.70189484     0.15200
H462        H  0.77953718  0.69347346  0.68714110     0.15200
H463        H  0.43037437  0.95758236  0.53754506     0.15200
H464        H  0.54553981  0.95911259  0.52863581     0.15200
H465        H  0.41175422  0.60713365  0.65641742     0.13500
H466        H  0.34641127  0.54269427  0.62417343     0.13400
H467        H  0.85358106  0.60722476  0.60823406     0.13500
H468        H  0.78812427  0.54240790  0.57809939     0.13400
H469        H  0.62645047  0.60474892  0.61322988     0.26700
H470        H  0.57304655  0.54531366  0.61611666     0.26700
O471        O  0.25941376  0.62469286  0.07329811    -0.80300
O472        O  0.01730772  0.53415748  0.19863137    -0.65000
O473        O  0.14626016  0.56858410  0.10616601    -1.11600
C474        C  0.00350543  0.59641028  0.02472006     1.06500
O475        O  0.92540065  0.52259222  0.15584293    -0.78200
O476        O  0.96889672  0.51284526  0.06992709    -0.65800
Ni477      Ni  0.23768365  0.59651108  0.12711097     1.34900
C478        C  0.00987888  0.51965208  0.03743647     0.85300
O479        O  0.12493954  0.52837647  0.18159867    -0.78800
O480        O  0.22932760  0.57084260  0.18202238    -0.89100
C481        C  0.95469684  0.52166621  0.19382553     0.84900
O482        O  0.22116790  0.62843562  0.16434917    -0.67300
O483        O  0.95975303  0.56838807  0.03984526    -0.86500
C484        C  0.18085220  0.62018638  0.19752682     0.85700
C485        C  0.18455942  0.54346706  0.19814358     1.07300
H486        H  0.04420691  0.59385399  0.14157392     0.39100
O487        O  0.04090360  0.57475290  0.12210674    -1.09200
O488        O  0.05761763  0.54981864  0.03348709    -0.65900
Ni489      Ni  0.10398423  0.59072858  0.07468831     1.26300
O490        O  0.12903683  0.59087801  0.19739556    -0.66100
O491        O  0.06107010  0.61284548  0.04431981    -0.78400
C492        C  0.22989420  0.62142258  0.03342730     0.85100
O493        O  0.16722927  0.60579903  0.02789589    -0.65500
Ni494      Ni  0.94985917  0.54669451  0.09902960     1.27400
Ni495      Ni  0.08247023  0.55149546  0.15292157     1.26100
H496        H  0.14351495  0.54939326  0.08673027     0.39600
C497        C  0.94441057  0.59899493  0.90051199    -0.13800
C498        C  0.97226591  0.63432742  0.89574167     0.16600
C499        C  0.00767787  0.65720585  0.93419063     0.02900
C500        C  0.01689660  0.64440778  0.97621702    -0.12300
C501        C  0.98911698  0.60895010  0.98108104    -0.03400
C502        C  0.95189570  0.58611535  0.94277618     0.02100
C503        C  0.95985025  0.64621648  0.85096102     0.08900
N504        N  0.03116891  0.69321257  0.93195747     0.65300
H505        H  0.04486531  0.66223223  0.00546963     0.18200
N506        N  0.92336806  0.54982568  0.94549152     0.75800
H507        H  0.91646133  0.58126784  0.87114141     0.09700
C508        C  0.00980529  0.66101642  0.81831675     0.03400
C509        C  0.99388171  0.66916778  0.77458887    -0.05300
C510        C  0.92833099  0.66193090  0.76236265    -0.23700
C511        C  0.87853438  0.64724224  0.79537473     0.12700
C512        C  0.89481297  0.63969374  0.83924610    -0.12800
N513        N  0.07566991  0.66591320  0.82782264     0.64300
H514        H  0.03246671  0.68010833  0.74947957     0.12200
N515        N  0.81151911  0.64047457  0.78541160     0.61000
H516        H  0.85615536  0.62815742  0.86417833     0.08400
O517        O  0.95432673  0.53461531  0.92961120    -0.40500
O518        O  0.86218544  0.53263637  0.95286796    -0.39700
O519        O  0.99244914  0.70541932  0.94159939    -0.39600
O520        O  0.09292247  0.71313675  0.93119502    -0.37400
O521        O  0.76803683  0.61057118  0.77174516    -0.38300
O522        O  0.79335249  0.66207152  0.79933121    -0.34400
O523        O  0.08997573  0.64276406  0.81435282    -0.35800
O524        O  0.12213148  0.69568204  0.83858327    -0.40100
C525        C  0.18744391  0.48823848  0.29534989    -0.13800
C526        C  0.21700324  0.51330232  0.33239676     0.16600
C527        C  0.23880673  0.54792345  0.32394543     0.02900
C528        C  0.23032923  0.55710832  0.27922127    -0.12300
C529        C  0.20026659  0.53222338  0.24219297    -0.03400
C530        C  0.17934247  0.49752414  0.25015171     0.02100
C531        C  0.23251952  0.50394885  0.37834250     0.08900
N532        N  0.26760070  0.57390430  0.36108540     0.65300
H533        H  0.24506878  0.58377684  0.27385833     0.18200
N534        N  0.15486382  0.47206554  0.21210137     0.75800
H535        H  0.17293212  0.46167580  0.30119496     0.09700
C536        C  0.20082129  0.99159848  0.41051653     0.03400
C537        C  0.21453114  0.98114845  0.45317504    -0.05300
C538        C  0.26758612  0.48864136  0.46634438    -0.23700
C539        C  0.31735858  0.50749837  0.43482328     0.12700
C540        C  0.29934665  0.51492580  0.39143996    -0.12800
N541        N  0.14050882  0.99382530  0.40466126     0.64300
H542        H  0.17915722  0.97487567  0.48065509     0.12200
N543        N  0.38627861  0.51830081  0.44537960     0.61000
H544        H  0.33791349  0.52922912  0.36753207     0.08400
O545        O  0.19569824  0.46898203  0.18566542    -0.40500
O546        O  0.09489685  0.44897102  0.21024194    -0.39700
O547        O  0.32888858  0.59506711  0.36195612    -0.39600
O548        O  0.23019983  0.57849624  0.38920774    -0.37400
O549        O  0.40944496  0.49793547  0.43640550    -0.38300
O550        O  0.42578282  0.54965135  0.45482221    -0.34400
O551        O  0.08518871  0.96683453  0.40264347    -0.35800
O552        O  0.14192849  0.02257956  0.41007481    -0.40100
C553        C  0.27496600  0.68557875  0.29930875    -0.13800
C554        C  0.22256232  0.68246881  0.32701576     0.16600
C555        C  0.15652642  0.66025963  0.31088273     0.02900
C556        C  0.14383136  0.64161284  0.26750630    -0.12300
C557        C  0.19620529  0.64411677  0.23981045    -0.03400
C558        C  0.26258006  0.66643925  0.25638086     0.02100
C559        C  0.23803126  0.70170828  0.37340692     0.08900
N560        N  0.10205720  0.65487450  0.33944778     0.65300
H561        H  0.09266177  0.62413772  0.25622732     0.18200
N562        N  0.31806566  0.66768456  0.23239749     0.75800
H563        H  0.32599815  0.70209458  0.31192563     0.09700
C564        C  0.25636469  0.68948258  0.41296620     0.03400
C565        C  0.27364999  0.70858817  0.45596509    -0.05300
C566        C  0.27305348  0.73997063  0.46039932    -0.23700
C567        C  0.25569314  0.75267497  0.42092474     0.12700
C568        C  0.23771186  0.73334826  0.37777912    -0.12800
N569        N  0.25680972  0.65740127  0.41022139     0.64300
H570        H  0.28729333  0.69875908  0.48615279     0.12200
N571        N  0.26092532  0.78616535  0.42351077     0.61000
H572        H  0.22529101  0.74343187  0.34735873     0.08400
O573        O  0.34051706  0.64753182  0.24283616    -0.40500
O574        O  0.35254010  0.69307407  0.20873966    -0.39700
O575        O  0.06320510  0.66653900  0.32787164    -0.39600
O576        O  0.08575439  0.63334269  0.37065784    -0.37400
O577        O  0.20977005  0.78968670  0.42980313    -0.38300
O578        O  0.31767381  0.81224896  0.42575093    -0.34400
O579        O  0.31129643  0.65697846  0.40497690    -0.35800
O580        O  0.20815703  0.63156374  0.42533242    -0.40100
C581        C  0.28006103  0.63986840  0.90698683    -0.13800
C582        C  0.34871375  0.65143605  0.91186273     0.16600
C583        C  0.37904488  0.65682346  0.95708350     0.02900
C584        C  0.33987594  0.64856473  0.99639012    -0.12300
C585        C  0.27028149  0.63509140  0.99165682    -0.03400
C586        C  0.24069176  0.63187859  0.94614661     0.02100
C587        C  0.38766188  0.65803055  0.86922518     0.08900
N588        N  0.44919976  0.66922998  0.96353540     0.65300
H589        H  0.36412898  0.65161870  0.03063059     0.18200
N590        N  0.17095364  0.62054383  0.93870202     0.75800
H591        H  0.25674223  0.63688599  0.87238347     0.09700
C592        C  0.37495692  0.63141651  0.83521836     0.03400
C593        C  0.41074152  0.63858312  0.79437231    -0.05300
C594        C  0.45837420  0.67216492  0.78604339    -0.23700
C595        C  0.47075982  0.69890797  0.82005784     0.12700
C596        C  0.43571931  0.69155769  0.86136857    -0.12800
N597        N  0.32569509  0.59695519  0.84161942     0.64300
H598        H  0.40003075  0.61779428  0.76853661     0.12200
N599        N  0.51919861  0.73353983  0.81360767     0.61000
H600        H  0.44518530  0.71223989  0.88706651     0.08400
O601        O  0.13307614  0.59013211  0.92326762    -0.40500
O602        O  0.15054506  0.64249718  0.93712866    -0.39700
O603        O  0.48616875  0.70012556  0.97729945    -0.39600
O604        O  0.47171198  0.64813386  0.96507595    -0.37400
O605        O  0.50041175  0.75433176  0.79932489    -0.38300
O606        O  0.57766434  0.74482030  0.83094226    -0.34400
O607        O  0.26938372  0.58513744  0.82043183    -0.35800
O608        O  0.34297189  0.57659871  0.85946789    -0.40100
C609        C  0.81610229  0.51292167  0.38705584    -0.13800
C610        C  0.81266832  0.98810672  0.36233877     0.16600
C611        C  0.80666387  0.96174482  0.39060559     0.02900
C612        C  0.77498481  0.95745018  0.43303047    -0.12300
C613        C  0.74841058  0.97904035  0.44797030    -0.03400
C614        C  0.75255833  0.00480906  0.41834157     0.02100
C615        C  0.85367875  0.99647459  0.32094390     0.08900
N616        N  0.83244758  0.93911676  0.37656012     0.65300
H617        H  0.77192702  0.93720693  0.45450571     0.18200
N618        N  0.80530665  0.54101187  0.45898470     0.75800
H619        H  0.84849882  0.53805516  0.37483158     0.09700
C620        C  0.81154650  0.49470904  0.27436094     0.03400
C621        C  0.84924733  0.50398620  0.23454113    -0.05300
C622        C  0.91351427  0.50689308  0.23463974    -0.23700
C623        C  0.96287726  0.02931280  0.28933770     0.12700
C624        C  0.92261264  0.01690827  0.32762954    -0.12800
N625        N  0.74822276  0.49406839  0.27378269     0.64300
H626        H  0.82904980  0.51046447  0.20415384     0.12200
N627        N  0.03206245  0.05274525  0.29859877     0.61000
H628        H  0.94489154  0.02456232  0.36295152     0.08400
O629        O  0.77863849  0.55945346  0.44927454    -0.40500
O630        O  0.85603657  0.55302958  0.48674599    -0.39700
O631        O  0.88378102  0.94146971  0.39770785    -0.39600
O632        O  0.79722932  0.91305136  0.34968880    -0.37400
O633        O  0.05161577  0.52586009  0.29540153    -0.38300
O634        O  0.07094374  0.04163817  0.31237171    -0.34400
O635        O  0.74554954  0.52181306  0.27901704    -0.35800
O636        O  0.69679174  0.46708771  0.25926586    -0.40100
C637        C  0.94485946  0.95906772  0.94472386    -0.13800
C638        C  0.99601013  0.96938868  0.91280760     0.16600
C639        C  0.05859344  0.99740878  0.92588595     0.02900
C640        C  0.05329679  0.49999525  0.97044706    -0.12300
C641        C  0.00017315  0.49329871  0.99983067    -0.03400
C642        C  0.95401943  0.97722889  0.98815023     0.02100
C643        C  0.98120634  0.95214725  0.86499959     0.08900
N644        N  0.09663006  0.49305105  0.89589654     0.65300
H645        H  0.10216941  0.52142534  0.97915165     0.18200
N646        N  0.89908421  0.96663014  0.01805065     0.75800
H647        H  0.89664144  0.93739876  0.93512971     0.09700
C648        C  0.01312496  0.93345118  0.84839974     0.03400
C649        C  0.99609541  0.91701643  0.80337738    -0.05300
C650        C  0.94669362  0.91827163  0.77430697    -0.23700
C651        C  0.91606319  0.93781632  0.79066084     0.12700
C652        C  0.93343662  0.95439619  0.83559409    -0.12800
N653        N  0.05987828  0.92908219  0.87775361     0.64300
H654        H  0.01984630  0.90192840  0.79202014     0.12200
N655        N  0.86834771  0.94179984  0.76185508     0.61000
H656        H  0.90942840  0.96921299  0.84766531     0.08400
O657        O  0.88810928  0.94320656  0.04564928    -0.40500
O658        O  0.85448559  0.97522995  0.00993796    -0.39700
O659        O  0.09725609  0.51116802  0.86274379    -0.39600
O660        O  0.16575061  0.01091845  0.90450173    -0.37400
O661        O  0.80709386  0.92454205  0.76897389    -0.38300
O662        O  0.88774679  0.96688658  0.73605328    -0.34400
O663        O  0.03857848  0.90713274  0.90843028    -0.35800
O664        O  0.11923023  0.94050080  0.86565456    -0.40100
loop_ 
_geom_bond_atom_site_label_1 
_geom_bond_atom_site_label_2 
_geom_bond_distance 
_geom_bond_site_symmetry_2 
_ccdc_geom_bond_type 
C1            N2   1.356       .  A
C1            N6   1.357       .  A
C1          C318   1.480       .  S
N2            C3   1.355       .  A
C3            N4   1.362       .  A
C3           C93   1.482       .  S
N4            C5   1.361       .  A
C5            N6   1.359       .  A
C5           C42   1.482       .  S
C7            N8   1.358       .  A
C7           N12   1.355       .  A
C7          C281   1.478       .  S
N8            C9   1.359       .  A
C9           N10   1.359       .  A
C9          C459   1.478       .  S
N10          C11   1.357       .  A
C11          N12   1.353       .  A
C11          C39   1.475       .  S
C13          N14   1.354       .  A
C13          N18   1.358       .  A
C13         C262   1.471       .  S
N14          C15   1.354       .  A
C15          N16   1.358       .  A
C15          C41   1.476       .  S
N16          C17   1.360       .  A
C17          N18   1.358       .  A
C17         C125   1.478       .  S
N19          C24   1.357       .  A
N19          C23   1.355       .  A
N19          H51   1.036       .  S
N20          C27   1.350       .  A
N20          C28   1.352       .  A
N21          C26   1.355       .  A
N21          C25   1.358       .  A
N21          H52   1.036       .  S
N22          C29   1.353       .  A
N22          C30   1.351       .  A
C23          C31   1.387       .  A
C23          C39   1.417       .  A
C24          C40   1.418       .  A
C24          C32   1.387       .  A
C25          C33   1.386       .  A
C25          C42   1.418       .  A
C26          C41   1.418       .  A
C26          C34   1.387       .  A
C27          C39   1.414       .  A
C27          C35   1.388       .  A
C28          C42   1.412       .  A
C28          C36   1.386       .  A
C29          C37   1.386       .  A
C29          C40   1.414       .  A
C30          C38   1.388       .  A
C30          C41   1.416       .  A
C31          C32   1.370       .  A
C31          H43   1.081       .  S
C32          H44   1.081       .  S
C33          C34   1.370       .  A
C33          H45   1.080       .  S
C34          H46   1.081       .  S
C35          C36   1.369       .  A
C35          H47   1.082       .  S
C36          H48   1.083       .  S
C37          C38   1.370       .  A
C37          H49   1.083       .  S
C38          H50   1.082       .  S
C40          C57   1.482       .  S
C53          N54   1.353       .  A
C53          N58   1.354       .  A
C53         C234   1.464       .  S
N54          C55   1.356       .  A
C55          N56   1.364       .  A
C55          C91   1.481       .  S
N56          C57   1.362       .  A
C57          N58   1.356       .  A
C59          N60   1.358       .  A
C59         N396   1.355       .  A
C59         C538   1.484       .  S
N60          C61   1.360       .  A
C61          N62   1.368       .  A
C61          C92   1.494       .  S
N62         C395   1.366       .  A
C63          N64   1.355       .  A
C63         N394   1.364       .  A
C63         C128   1.485   1_565  S
N64         C391   1.354       .  A
C65          N66   1.355       .  A
C65          N70   1.355       .  A
C65         C178   1.475       .  S
N66          C67   1.356       .  A
C67          N68   1.366       .  A
C67         C126   1.488       .  S
N68          C69   1.367       .  A
C69          N70   1.356       .  A
C69          C94   1.489       .  S
N71          C76   1.359       .  A
N71          C75   1.356       .  A
N71         H103   1.037       .  S
N72          C79   1.353       .  A
N72          C80   1.355       .  A
N73          C78   1.356       .  A
N73          C77   1.359       .  A
N73         H104   1.037   1_655  S
N74          C81   1.356       .  A
N74          C82   1.353       .  A
C75          C83   1.387       .  A
C75          C91   1.419       .  A
C76          C92   1.420       .  A
C76          C84   1.386       .  A
C77          C85   1.386       .  A
C77          C94   1.419       .  A
C78          C93   1.420       .  A
C78          C86   1.388       .  A
C79          C91   1.419       .  A
C79          C87   1.388       .  A
C80          C94   1.418   1_455  A
C80          C88   1.386       .  A
C81          C89   1.385       .  A
C81          C92   1.419       .  A
C82          C90   1.388       .  A
C82          C93   1.420   1_455  A
C83          C84   1.366       .  A
C83          H95   1.080       .  S
C84          H96   1.080       .  S
C85          C86   1.367       .  A
C85          H97   1.081       .  S
C86          H98   1.079       .  S
C87          C88   1.373       .  A
C87          H99   1.082       .  S
C88         H100   1.083       .  S
C89          C90   1.373       .  A
C89         H101   1.082       .  S
C90         H102   1.082       .  S
N105        C110   1.359       .  A
N105        C109   1.355       .  A
N105        H137   1.037       .  S
N106        C113   1.351       .  A
N106        C114   1.353       .  A
N107        C112   1.355       .  A
N107        C111   1.359       .  A
N107        H138   1.036       .  S
N108        C115   1.354       .  A
N108        C116   1.351       .  A
C109        C117   1.387       .  A
C109        C125   1.418       .  A
C110        C126   1.420       .  A
C110        C118   1.387       .  A
C111        C128   1.419       .  A
C111        C451   1.386   1_545  A
C112        C127   1.418       .  A
C112        C452   1.387   1_545  A
C113        C125   1.415       .  A
C113        C121   1.387       .  A
C114        C128   1.415       .  A
C114        C122   1.386       .  A
C115        C123   1.386       .  A
C115        C126   1.416       .  A
C116        C124   1.388       .  A
C116        C127   1.416       .  A
C117        C118   1.370       .  A
C117        H129   1.081       .  S
C118        H130   1.081       .  S
C119        C120   1.370       .  A
C119        C443   1.387       .  A
C119        H131   1.080       .  S
C120        C444   1.387       .  A
C120        H132   1.081       .  S
C121        C122   1.372       .  A
C121        H133   1.082       .  S
C122        H134   1.083       .  S
C123        C124   1.373       .  A
C123        H135   1.082       .  S
C124        H136   1.082       .  S
C127        C341   1.477   1_545  S
O139       Ni145   1.939       .  S
O139        C160   1.276       .  A
O140       Ni163   1.883       .  S
O140        C149   1.261   1_455  A
O141       Ni145   1.925       .  S
O141       Ni163   1.896       .  S
O141       Ni157   1.915       .  S
O141        H164   0.972       .  S
C142        C169   1.472   1_554  S
C142        O159   1.267       .  A
C142        O151   1.274   1_455  A
O143       Ni162   1.938       .  S
O143        C149   1.276       .  A
O144       Ni162   1.924       .  S
O144        C146   1.274   1_655  A
Ni145       O148   1.944       .  S
Ni145       O150   1.911       .  S
C146        C309   1.492       .  S
C146        O156   1.274       .  A
O147       Ni163   1.889       .  S
O147        C153   1.261       .  A
O148        C153   1.276       .  A
C149        C290   1.484       .  S
O150        C152   1.273       .  A
O151       Ni162   1.938       .  S
C152        C225   1.476       .  S
C152        O158   1.275       .  A
C153        C197   1.487       .  S
H154        O155   0.962       .  S
O155       Ni163   1.902       .  S
O155       Ni157   1.893       .  S
O155       Ni162   1.925   1_455  S
O156       Ni157   1.929       .  S
Ni157       O161   1.886       .  S
Ni157       O159   1.899       .  S
O158       Ni163   1.934       .  S
C160        C253   1.487   1_554  S
C160        O161   1.262       .  A
C165        C166   1.397       .  A
C165        C170   1.393       .  A
C165        H175   1.084       .  S
C166        C171   1.472       .  S
C166        C167   1.409   1_655  A
C167        C168   1.401       .  A
C167        N172   1.428       .  S
C168        C169   1.404       .  A
C168        H173   1.084   1_556  S
C169        C170   1.412   1_455  A
C170        N174   1.429       .  S
C171        C176   1.408   1_655  A
C171        C180   1.400       .  A
N172        O187   1.262       .  A
N172        O188   1.261       .  A
N174        O185   1.262       .  A
N174        O186   1.262       .  A
C176        C177   1.399   1_455  A
C176        N181   1.429       .  S
C177        C178   1.404       .  A
C177        H182   1.084   1_655  S
C178        C179   1.412       .  A
C179        C180   1.396       .  A
C179        N183   1.429       .  S
C180        H184   1.084       .  S
N181        O191   1.262       .  A
N181        O192   1.262       .  A
N183        O189   1.262       .  A
N183        O190   1.262       .  A
C193        C194   1.402   1_565  A
C193        C198   1.399   1_565  A
C193        H203   1.083       .  S
C194        C199   1.485       .  S
C194        C195   1.411       .  A
C195        C196   1.398       .  A
C195        N200   1.429       .  S
C196        C197   1.405       .  A
C196        H201   1.082       .  S
C197        C198   1.418       .  A
C198        N202   1.430   1_545  S
C199        C208   1.403   1_545  A
C199        C536   1.414   1_545  A
N200        O215   1.262       .  A
N200        O216   1.262       .  A
N202        O213   1.262       .  A
N202        O214   1.262       .  A
C204        C205   1.402       .  A
C204        C531   1.407       .  A
C204        N209   1.429       .  S
C205        C538   1.407       .  A
C205        H210   1.084       .  S
C206        C391   1.472       .  S
C206        C207   1.410       .  A
C206        C537   1.400       .  A
C207        C208   1.398       .  A
C207        N211   1.430       .  S
C208        H212   1.083   1_565  S
N209        O219   1.262       .  A
N209        O220   1.262       .  A
N211        O217   1.262       .  A
N211        O218   1.262   1_565  A
C221        C222   1.402       .  A
C221        C226   1.399       .  A
C221        H231   1.084       .  S
C222        C227   1.479       .  S
C222        C223   1.407       .  A
C223        C224   1.401       .  A
C223        N228   1.428       .  S
C224        C225   1.405       .  A
C224        H229   1.084       .  S
C225        C226   1.411       .  A
C226        N230   1.429       .  S
C227        C232   1.411       .  A
C227        C236   1.404       .  A
N228        O243   1.262       .  A
N228        O244   1.262       .  A
N230        O241   1.262       .  A
N230        O242   1.262       .  A
C232        C233   1.395       .  A
C232        N237   1.429       .  S
C233        C234   1.396       .  A
C233        H238   1.084       .  S
C234        C235   1.409       .  A
C235        C236   1.403       .  A
C235        N239   1.430       .  S
C236        H240   1.084       .  S
N237        O247   1.262       .  A
N237        O248   1.262       .  A
N239        O245   1.262       .  A
N239        O246   1.262       .  A
C249        C250   1.399       .  A
C249        C254   1.399       .  A
C249        H259   1.084       .  S
C250        C255   1.475       .  S
C250        C251   1.406       .  A
C251        C252   1.398       .  A
C251        N256   1.429       .  S
C252        C253   1.407       .  A
C252        H257   1.083   1_556  S
C253        C254   1.420       .  A
C254        N258   1.430       .  S
C255        C260   1.409       .  A
C255        C264   1.400       .  A
N256        O271   1.262       .  A
N256        O272   1.262       .  A
N258        O269   1.262       .  A
N258        O270   1.262       .  A
C260        C261   1.398       .  A
C260        N265   1.429       .  S
C261        C262   1.401       .  A
C261        H266   1.084       .  S
C262        C263   1.412       .  A
C263        C264   1.398       .  A
C263        N267   1.429       .  S
C264        H268   1.084       .  S
N265        O275   1.262       .  A
N265        O276   1.262       .  A
N267        O273   1.262       .  A
N267        O274   1.262       .  A
C277        C610   1.399   1_545  A
C277        C614   1.399       .  A
C277        H287   1.084       .  S
C278        C283   1.468       .  S
C278        C279   1.402       .  A
C278        C609   1.400       .  A
C279        C280   1.396       .  A
C279        N284   1.428       .  S
C280        C281   1.408       .  A
C280        H285   1.084       .  S
C281        C282   1.413       .  A
C282        C609   1.398       .  A
C282        N618   1.429       .  S
C283        C292   1.399       .  A
C283        C620   1.403       .  A
N284        O299   1.262       .  A
N284        O300   1.262       .  A
N286        C614   1.430       .  S
N286        O297   1.262       .  A
N286        O298   1.262       .  A
C288        C289   1.397       .  A
C288        C615   1.403       .  A
C288        N293   1.428       .  S
C289        C290   1.406   1_565  A
C289        H294   1.083       .  S
C290        C623   1.421       .  A
C291        C292   1.399       .  A
C291        C622   1.417       .  A
C291        N295   1.430   1_655  S
C292        H296   1.084       .  S
N293        O303   1.262       .  A
N293        O304   1.262       .  A
N295        O302   1.262       .  A
N295        O633   1.262       .  A
O301        N627   1.262       .  A
C305        C306   1.402       .  A
C305        C310   1.401       .  A
C305        H315   1.084       .  S
C306        C311   1.479       .  S
C306        C307   1.408   1_655  A
C307        C640   1.397       .  A
C307        N644   1.430       .  S
C308        C309   1.410   1_556  A
C308        C639   1.399   1_545  A
C308        H313   1.084       .  S
C309        C642   1.414   1_444  A
C310        C641   1.414   1_655  A
C310        N314   1.429   1_556  S
C311        C316   1.408       .  A
C311        C320   1.403       .  A
N312        C639   1.430   1_545  S
N312        O327   1.262       .  A
N312        O660   1.262       .  A
N314        O325   1.262       .  A
N314        O326   1.262       .  A
C316        C317   1.398       .  A
C316        N321   1.429   1_655  S
C317        C318   1.406       .  A
C317        H322   1.084       .  S
C318        C319   1.412       .  A
C319        C320   1.400       .  A
C319        N323   1.429       .  S
C320        H324   1.084       .  S
N321        O331   1.262       .  A
N321        O332   1.262       .  A
N323        O329   1.262       .  A
N323        O330   1.262       .  A
O328        N644   1.262       .  A
C333        N334   1.360       .  A
C333        N338   1.359       .  A
C333        C650   1.490       .  S
N334        C335   1.359       .  A
C335        N336   1.363       .  A
C335        C425   1.491       .  S
N336        C337   1.362       .  A
C337        N338   1.359       .  A
C337        C374   1.487       .  S
C339        N340   1.358       .  A
C339        N344   1.357       .  A
C339        C613   1.485       .  S
N340        C341   1.357       .  A
C341        N342   1.358       .  A
N342        C343   1.356       .  A
C343        N344   1.354       .  A
C343        C371   1.474       .  S
C345        N346   1.355       .  A
C345        N350   1.360       .  A
C345        C594   1.478       .  S
N346        C347   1.355       .  A
C347        N348   1.355       .  A
C347        C373   1.471       .  S
N348        C349   1.358       .  A
C349        N350   1.358       .  A
C349        C457   1.479       .  S
N351        C356   1.359       .  A
N351        C355   1.354       .  A
N351        H383   1.036       .  S
N352        C359   1.350       .  A
N352        C360   1.353       .  A
N353        C358   1.354       .  A
N353        C357   1.359       .  A
N353        H384   1.037       .  S
N354        C361   1.353       .  A
N354        C362   1.350       .  A
C355        C363   1.388       .  A
C355        C371   1.419       .  A
C356        C372   1.420       .  A
C356        C364   1.386       .  A
C357        C365   1.386       .  A
C357        C374   1.419       .  A
C358        C373   1.418       .  A
C358        C366   1.388       .  A
C359        C371   1.416       .  A
C359        C367   1.388       .  A
C360        C374   1.414       .  A
C360        C368   1.386       .  A
C361        C369   1.386       .  A
C361        C372   1.414       .  A
C362        C370   1.388       .  A
C362        C373   1.414       .  A
C363        C364   1.371       .  A
C363        H375   1.081       .  S
C364        H376   1.081       .  S
C365        C366   1.372       .  A
C365        H377   1.082       .  S
C366        H378   1.082       .  S
C367        C368   1.371       .  A
C367        H379   1.082       .  S
C368        H380   1.083       .  S
C369        C370   1.370       .  A
C369        H381   1.082       .  S
C370        H382   1.083       .  S
C372        C389   1.488       .  S
C385        N386   1.357       .  A
C385        N390   1.355       .  A
C385        C566   1.471       .  S
N386        C387   1.359       .  A
C387        N388   1.367       .  A
C387        C423   1.492       .  S
N388        C389   1.365       .  A
C389        N390   1.356       .  A
C391        N392   1.357       .  A
N392        C393   1.359       .  A
C393        N394   1.366       .  A
C393        C424   1.489       .  S
C395        N396   1.354       .  A
C395        C460   1.490       .  S
C397        N398   1.353       .  A
C397        N402   1.356       .  A
C397        C510   1.476       .  S
N398        C399   1.354       .  A
C399        N400   1.368       .  A
C399        C458   1.491       .  S
N400        C401   1.370       .  A
C401        N402   1.357       .  A
C401        C426   1.492       .  S
N403        C408   1.358       .  A
N403        C407   1.358       .  A
N403        H435   1.036       .  S
N404        C411   1.356       .  A
N404        C412   1.356       .  A
N405        C410   1.359   1_455  A
N405        C409   1.358   1_455  A
N405        H436   1.037       .  S
N406        C413   1.354       .  A
N406        C414   1.354       .  A
C407        C415   1.387       .  A
C407        C423   1.421       .  A
C408        C424   1.421       .  A
C408        C416   1.387       .  A
C409        C417   1.387       .  A
C409        C426   1.423       .  A
C410        C425   1.422       .  A
C410        C418   1.387       .  A
C411        C423   1.423       .  A
C411        C419   1.387       .  A
C412        C426   1.423   1_455  A
C412        C420   1.387       .  A
C413        C421   1.386       .  A
C413        C424   1.419       .  A
C414        C422   1.387       .  A
C414        C425   1.420   1_455  A
C415        C416   1.365       .  A
C415        H427   1.080       .  S
C416        H428   1.079       .  S
C417        C418   1.368       .  A
C417        H429   1.079       .  S
C418        H430   1.081       .  S
C419        C420   1.375       .  A
C419        H431   1.082       .  S
C420        H432   1.082       .  S
C421        C422   1.374       .  A
C421        H433   1.082       .  S
C422        H434   1.082       .  S
N437        C442   1.360       .  A
N437        C441   1.355       .  A
N437        H469   1.036       .  S
N438        C445   1.352       .  A
N438        C446   1.354       .  A
N439        C444   1.355       .  A
N439        C443   1.360       .  A
N439        H470   1.037       .  S
N440        C447   1.354       .  A
N440        C448   1.351       .  A
C441        C449   1.388       .  A
C441        C457   1.420       .  A
C442        C458   1.421       .  A
C442        C450   1.386       .  A
C443        C460   1.421       .  A
C444        C459   1.419       .  A
C445        C457   1.418       .  A
C445        C453   1.388       .  A
C446        C460   1.417       .  A
C446        C454   1.386       .  A
C447        C455   1.386       .  A
C447        C458   1.417       .  A
C448        C456   1.388       .  A
C448        C459   1.417       .  A
C449        C450   1.368       .  A
C449        H461   1.081       .  S
C450        H462   1.079       .  S
C451        C452   1.368       .  A
C451        H463   1.080       .  S
C452        H464   1.080       .  S
C453        C454   1.372       .  A
C453        H465   1.082       .  S
C454        H466   1.083       .  S
C455        C456   1.371       .  A
C455        H467   1.082       .  S
C456        H468   1.082       .  S
O471       Ni477   1.942       .  S
O471        C492   1.276       .  A
O472       Ni495   1.894       .  S
O472        C481   1.265   1_455  A
O473       Ni477   1.919       .  S
O473       Ni495   1.896       .  S
O473       Ni489   1.903       .  S
O473        H496   0.971       .  S
C474        C501   1.476   1_454  S
C474        O491   1.264       .  A
C474        O483   1.272   1_455  A
O475       Ni494   1.924       .  S
O475        C481   1.273       .  A
O476       Ni494   1.910       .  S
O476        C478   1.271   1_655  A
Ni477       O480   1.934       .  S
Ni477       O482   1.914       .  S
C478        C641   1.485   1_554  S
C478        O488   1.277       .  A
O479       Ni495   1.903       .  S
O479        C485   1.267       .  A
O480        C485   1.274       .  A
C481        C622   1.482       .  S
O482        C484   1.274       .  A
O483       Ni494   1.943       .  S
C484        C557   1.493       .  S
C484        O490   1.279       .  A
C485        C529   1.469       .  S
H486        O487   0.964       .  S
O487       Ni495   1.921       .  S
O487       Ni489   1.897       .  S
O487       Ni494   1.930   1_455  S
O488       Ni489   1.936       .  S
Ni489       O493   1.885       .  S
Ni489       O491   1.898       .  S
O490       Ni495   1.948       .  S
C492        C585   1.488   1_554  S
C492        O493   1.262       .  A
C497        C498   1.399       .  A
C497        C502   1.396       .  A
C497        H507   1.084       .  S
C498        C503   1.474       .  S
C498        C499   1.407   1_655  A
C499        C500   1.401       .  A
C499        N504   1.429       .  S
C500        C501   1.405   1_455  A
C500        H505   1.084   1_556  S
C501        C502   1.413       .  A
C502        N506   1.429       .  S
C503        C508   1.409   1_655  A
C503        C512   1.399       .  A
N504        O519   1.262   1_455  A
N504        O520   1.261       .  A
N506        O517   1.262       .  A
N506        O518   1.262       .  A
C508        C509   1.400   1_455  A
C508        N513   1.429       .  S
C509        C510   1.404       .  A
C509        H514   1.084   1_655  S
C510        C511   1.414       .  A
C511        C512   1.396       .  A
C511        N515   1.429       .  S
C512        H516   1.084       .  S
N513        O523   1.262       .  A
N513        O524   1.261       .  A
N515        O521   1.262       .  A
N515        O522   1.262       .  A
C525        C526   1.404       .  A
C525        C530   1.404       .  A
C525        H535   1.084       .  S
C526        C531   1.476       .  S
C526        C527   1.406       .  A
C527        C528   1.392       .  A
C527        N532   1.427       .  S
C528        C529   1.400       .  A
C528        H533   1.084       .  S
C529        C530   1.409       .  A
C530        N534   1.429       .  S
C531        C540   1.399       .  A
N532        O547   1.262       .  A
N532        O548   1.261       .  A
N534        O545   1.262       .  A
N534        O546   1.261       .  A
C536        C537   1.400       .  A
C536        N541   1.429       .  S
C537        H542   1.084       .  S
C538        C539   1.416       .  A
C539        C540   1.396       .  A
C539        N543   1.430       .  S
C540        H544   1.084       .  S
N541        O551   1.262       .  A
N541        O552   1.262   1_565  A
N543        O549   1.262       .  A
N543        O550   1.262       .  A
C553        C554   1.401       .  A
C553        C558   1.404       .  A
C553        H563   1.084       .  S
C554        C559   1.485       .  S
C554        C555   1.407       .  A
C555        C556   1.404       .  A
C555        N560   1.428       .  S
C556        C557   1.408       .  A
C556        H561   1.084       .  S
C557        C558   1.417       .  A
C558        N562   1.429       .  S
C559        C564   1.409       .  A
C559        C568   1.405       .  A
N560        O575   1.261       .  A
N560        O576   1.262       .  A
N562        O573   1.262       .  A
N562        O574   1.262       .  A
C564        C565   1.398       .  A
C564        N569   1.425       .  S
C565        C566   1.397       .  A
C565        H570   1.084       .  S
C566        C567   1.409       .  A
C567        C568   1.406       .  A
C567        N571   1.430       .  S
C568        H572   1.084       .  S
N569        O579   1.262       .  A
N569        O580   1.261       .  A
N571        O577   1.261       .  A
N571        O578   1.262       .  A
C581        C582   1.399       .  A
C581        C586   1.398       .  A
C581        H591   1.084       .  S
C582        C587   1.478       .  S
C582        C583   1.407       .  A
C583        C584   1.399       .  A
C583        N588   1.428       .  S
C584        C585   1.407       .  A
C584        H589   1.083   1_556  S
C585        C586   1.421       .  A
C586        N590   1.430       .  S
C587        C592   1.409       .  A
C587        C596   1.401       .  A
N588        O603   1.262       .  A
N588        O604   1.262       .  A
N590        O601   1.262       .  A
N590        O602   1.262       .  A
C592        C593   1.397       .  A
C592        N597   1.429       .  S
C593        C594   1.403       .  A
C593        H598   1.084       .  S
C594        C595   1.415       .  A
C595        C596   1.400       .  A
C595        N599   1.429       .  S
C596        H600   1.084       .  S
N597        O607   1.262       .  A
N597        O608   1.262       .  A
N599        O605   1.262       .  A
N599        O606   1.262       .  A
C609        H619   1.084       .  S
C610        C615   1.470       .  S
C610        C611   1.402       .  A
C611        C612   1.396       .  A
C611        N616   1.429       .  S
C612        C613   1.409       .  A
C612        H617   1.083       .  S
C613        C614   1.418   1_565  A
C615        C624   1.398   1_565  A
N616        O631   1.262       .  A
N616        O632   1.262       .  A
N618        O629   1.262       .  A
N618        O630   1.262       .  A
C620        C621   1.395       .  A
C620        N625   1.429       .  S
C621        C622   1.407       .  A
C621        H626   1.084       .  S
C623        C624   1.398       .  A
C623        N627   1.431   1_655  S
C624        H628   1.084       .  S
N625        O635   1.262       .  A
N625        O636   1.262       .  A
N627        O634   1.262       .  A
C637        C638   1.405       .  A
C637        C642   1.405       .  A
C637        H647   1.084       .  S
C638        C643   1.486       .  S
C638        C639   1.409   1_655  A
C640        C641   1.407       .  A
C640        H645   1.084       .  S
C642        N646   1.428   1_556  S
C643        C648   1.410   1_655  A
C643        C652   1.403       .  A
N644        O659   1.262       .  A
N646        O657   1.262       .  A
N646        O658   1.262       .  A
C648        C649   1.402   1_455  A
C648        N653   1.429       .  S
C649        C650   1.407       .  A
C649        H654   1.083   1_655  S
C650        C651   1.415       .  A
C651        C652   1.402       .  A
C651        N655   1.429       .  S
C652        H656   1.084       .  S
N653        O663   1.262       .  A
N653        O664   1.262       .  A
N655        O661   1.262       .  A
N655        O662   1.262       .  A
