geometry optimzed in LAMMPS
_audit_creation_date              2020-11-30 
_audit_creation_method            'lammps2cif' 
_symmetry_space_group_name_H-M    'P1' 
_symmetry_Int_Tables_number       1 
_symmetry_cell_setting            triclinic 
loop_ 
_symmetry_equiv_pos_as_xyz 
  x,y,z 
_cell_length_a                    21.29784112 
_cell_length_b                    21.30819904130458 
_cell_length_c                    37.58532749225856 
_cell_angle_alpha                 90.61074898261333 
_cell_angle_beta                  89.78491641213591 
_cell_angle_gamma                 87.80401326164672 
loop_ 
_atom_site_label 
_atom_site_type_symbol 
_atom_site_fract_x 
_atom_site_fract_y 
_atom_site_fract_z 
_atom_site_charge 
C1          C  0.50051783  0.00106530  0.74967707     0.01200
O2          O  0.19269116  0.49370534  0.60251843    -0.68100
O3          O  0.31905189  0.46540941  0.67221115    -0.68300
O4          O  0.19017798  0.46738676  0.67222129    -0.68100
O5          O  0.31653645  0.49241902  0.60247326    -0.68100
O6          O  0.30855535  0.04064629  0.60643535    -0.68100
O7          O  0.18033146  0.04079037  0.67542771    -0.68100
O8          O  0.30848224  0.04903204  0.67717174    -0.68100
O9          O  0.18505514  0.02822283  0.60404331    -0.68200
V10         V  0.25457693  0.48151707  0.63797961     1.35200
V11         V  0.24568181  0.03785987  0.64116094     1.35200
C12         C  0.17088710  0.54850412  0.59656882     0.81200
C13         C  0.34166155  0.51097968  0.68902831     0.81200
C14         C  0.16526953  0.51375311  0.68907871     0.81100
C15         C  0.33508262  0.54696836  0.59651274     0.81100
O16         O  0.19310903  0.44647270  0.31693416    -0.68100
O17         O  0.32164366  0.42927763  0.38644189    -0.68300
O18         O  0.19639300  0.42661139  0.38711480    -0.68100
O19         O  0.32139148  0.44938433  0.31642562    -0.68100
O20         O  0.31618293  0.03464099  0.32968502    -0.68100
O21         O  0.19158809  0.99891247  0.39799960    -0.68100
O22         O  0.31541901  0.99580182  0.39747652    -0.68100
O23         O  0.18736155  0.03640254  0.33006188    -0.68200
V24         V  0.25799029  0.43998172  0.35165991     1.35200
V25         V  0.25268836  0.01474702  0.36309880     1.35200
C26         C  0.16628875  0.49933627  0.31121692     0.81200
C27         C  0.33844635  0.47629176  0.40422375     0.81200
C28         C  0.17422172  0.47305676  0.40484172     0.81100
C29         C  0.34240512  0.50316199  0.31099163     0.81100
C30         C  0.50211329  0.06328931  0.02019773     0.06000
C31         C  0.51257365  0.06142336  0.98316534     0.06000
C32         C  0.51609325  0.50218784  0.96595122    -0.14500
C33         C  0.50150940  0.44680868  0.98332226     0.06000
C34         C  0.49127315  0.44857862  0.02027119     0.06000
C35         C  0.49372055  0.50624602  0.03841630    -0.14500
H36         H  0.48895684  0.50735467  0.06715274     0.08000
H37         H  0.52446851  0.50073941  0.93750244     0.08000
O38         O  0.03767346  0.32068336  0.17503616    -0.68100
O39         O  0.01786270  0.19577967  0.10397441    -0.68300
O40         O  0.01543472  0.31955638  0.10482008    -0.68100
O41         O  0.03879913  0.19207417  0.17435706    -0.68100
O42         O  0.43830520  0.19508749  0.18443504    -0.68100
O43         O  0.41475995  0.32264810  0.11544487    -0.68100
O44         O  0.41712027  0.19714370  0.11416158    -0.68100
O45         O  0.43718970  0.32363988  0.18527828    -0.68200
V46         V  0.02556045  0.25704676  0.14010503     1.35200
V47         V  0.42885656  0.25947700  0.14989578     1.35200
C48         C  0.49061904  0.34601915  0.19059884     0.81200
C49         C  0.46401764  0.17685991  0.09612368     0.81200
C50         C  0.46069141  0.34136749  0.09774394     0.81100
C51         C  0.49199246  0.16980021  0.18985652     0.81100
C52         C  0.50419020  0.50898440  0.25042433     0.01200
O53         O  0.46075983  0.32539366  0.82341245    -0.68100
O54         O  0.45033071  0.19556044  0.89001800    -0.68300
O55         O  0.46524885  0.31849173  0.89497199    -0.68100
O56         O  0.44963992  0.19769191  0.81934863    -0.68100
O57         O  0.05050349  0.18003517  0.82123369    -0.68100
O58         O  0.06651666  0.30921842  0.88904392    -0.68100
O59         O  0.05202984  0.18630027  0.89275835    -0.68100
O60         O  0.06123084  0.30760531  0.81825909    -0.68200
V61         V  0.45837573  0.25928741  0.85660131     1.35200
V62         V  0.05564404  0.24592496  0.85504575     1.35200
C63         C  0.51246848  0.34012771  0.81014101     0.81200
C64         C  0.49871422  0.17095166  0.90382442     0.81200
C65         C  0.51969854  0.33315403  0.90493693     0.81100
C66         C  0.49800840  0.16507839  0.80959111     0.81100
C67         C  0.44782138  0.50930269  0.48146539     0.06000
C68         C  0.44696693  0.52063210  0.51846570     0.06000
C69         C  0.50409777  0.52542526  0.53651703    -0.14500
C70         C  0.06196853  0.52047608  0.51868667     0.06000
C71         C  0.06279702  0.50803646  0.48182072     0.06000
C72         C  0.50572969  0.50416309  0.46370246    -0.14500
H73         H  0.50641258  0.49940467  0.43494867     0.08000
H74         H  0.50369231  0.52979569  0.56527873     0.08000
C75         C  0.49738094  0.40197051  0.21218267    -0.09500
C76         C  0.50217502  0.45102381  0.22850249    -0.11100
C77         C  0.49856165  0.11449504  0.21187012    -0.09500
C78         C  0.50095622  0.06636618  0.22896714    -0.11100
C79         C  0.52116216  0.11794321  0.96123767    -0.12700
C80         C  0.49011610  0.12257155  0.93029363    -0.27900
H81         H  0.05345626  0.15373721  0.96954237     0.16300
H82         H  0.45326540  0.09006996  0.92447568     0.16900
C83         C  0.53081059  0.37884265  0.93310443    -0.12700
C84         C  0.49284528  0.38996957  0.96113098    -0.27900
H85         H  0.07347532  0.40463303  0.93056157     0.16300
H86         H  0.45325258  0.36058428  0.96611888     0.16900
C87         C  0.45094483  0.38944090  0.07062178    -0.12700
C88         C  0.48727113  0.39078615  0.04140683    -0.27900
H89         H  0.41547664  0.42650894  0.07572498     0.16300
H90         H  0.01930789  0.35109829  0.03493799     0.16900
C91         C  0.50001051  0.12194596  0.04148834    -0.12700
C92         C  0.45679441  0.13060258  0.06753829    -0.27900
H93         H  0.03739208  0.15512135  0.03811644     0.16300
H94         H  0.41732307  0.09989722  0.06925670     0.16900
C95         C  0.38999090  0.50820861  0.45977334    -0.12700
C96         C  0.38636279  0.46858742  0.43182346    -0.27900
H97         H  0.34858298  0.98435599  0.46659605     0.16300
H98         H  0.42133708  0.43049479  0.42831109     0.16900
C99         C  0.12812274  0.46429848  0.43310085    -0.12700
C100        C  0.12127060  0.50505558  0.46052693    -0.27900
H101        H  0.09625746  0.42597277  0.43009049     0.16300
H102        H  0.14853613  0.00602954  0.46326948     0.16900
C103        C  0.39806914  0.50996684  0.28943473    -0.09500
C104        C  0.44693767  0.51183483  0.27283636    -0.11100
C105        C  0.11051236  0.50407802  0.28928162    -0.09500
C106        C  0.06191773  0.50642079  0.27241773    -0.11100
C107        C  0.11981326  0.52088892  0.54035188    -0.12700
C108        C  0.12389321  0.55947431  0.56876236    -0.27900
H109        H  0.14758554  0.02023972  0.52899656     0.16300
H110        H  0.08957990  0.59801838  0.57273246     0.16900
C111        C  0.38161703  0.55790683  0.56878001    -0.12700
C112        C  0.38869166  0.52033454  0.53997643    -0.27900
H113        H  0.40588905  0.03644601  0.56601396     0.16300
H114        H  0.35442151  0.48521915  0.53410206     0.16900
C115        C  0.49763323  0.05943146  0.77144401    -0.09500
C116        C  0.49444027  0.10902308  0.78772304    -0.11100
C117        C  0.50959083  0.44362056  0.77114003    -0.09500
C118        C  0.51417946  0.39514780  0.78786704    -0.11100
C119        C  0.06075162  0.50422416  0.72729163    -0.09500
C120        C  0.10947426  0.50708896  0.71060666    -0.11100
C121        C  0.44622719  0.49893529  0.72726934    -0.09500
C122        C  0.39747460  0.50222065  0.71059696    -0.11100
C123        C  0.50352050  0.50110360  0.74936215     0.01200
O124        O  0.19212989  0.92749235  0.61286876    -0.68100
O125        O  0.32390217  0.94761970  0.67767761    -0.68300
O126        O  0.19603850  0.94047091  0.68316574    -0.68100
O127        O  0.31530892  0.93853505  0.60631578    -0.68100
O128        O  0.31424884  0.59209780  0.61568800    -0.68100
O129        O  0.18806426  0.56711871  0.68514960    -0.68100
O130        O  0.31652469  0.56519155  0.68501247    -0.68100
O131        O  0.18891271  0.59338883  0.61572354    -0.68200
V132        V  0.25685229  0.94048491  0.64522844     1.35200
V133        V  0.25200495  0.57738906  0.65040857     1.35200
C134        C  0.16848161  0.97319036  0.59618522     0.81200
C135        C  0.34009716  0.00106089  0.68784651     0.81200
C136        C  0.16455213  0.99099559  0.69016892     0.81100
C137        C  0.33122562  0.99032851  0.59330487     0.81100
O138        O  0.18942679  0.93887939  0.31239338    -0.68100
O139        O  0.31839423  0.89890612  0.37856281    -0.68300
O140        O  0.19309831  0.90143739  0.38019188    -0.68100
O141        O  0.31782754  0.93756932  0.31121483    -0.68100
O142        O  0.31598770  0.55009223  0.32651688    -0.68100
O143        O  0.19101679  0.52741732  0.39703602    -0.68100
O144        O  0.31474200  0.52987065  0.39694094    -0.68100
O145        O  0.18734841  0.54728742  0.32657271    -0.68200
V146        V  0.25457212  0.92124682  0.34567597     1.35200
V147        V  0.25234089  0.53681744  0.36120148     1.35200
C148        C  0.16435945  0.99347181  0.31114990     0.81200
C149        C  0.33709726  0.93992874  0.40002422     0.81200
C150        C  0.17295409  0.94386849  0.40156633     0.81100
C151        C  0.34062815  0.99152999  0.31023269     0.81100
C152        C  0.50467947  0.56236117  0.02057525     0.06000
C153        C  0.51720411  0.56016921  0.98372622     0.06000
C154        C  0.51128349  0.00351076  0.96531108    -0.14500
C155        C  0.49977839  0.94762818  0.98301905     0.06000
C156        C  0.49209869  0.94915195  0.02016265     0.06000
C157        C  0.49408828  0.00688917  0.03823012    -0.14500
H158        H  0.49102635  0.00794743  0.06704045     0.08000
H159        H  0.51764786  0.00232809  0.93669229     0.08000
O160        O  0.04272686  0.82127903  0.17500136    -0.68100
O161        O  0.02280396  0.69599327  0.10401383    -0.68300
O162        O  0.02024346  0.81986732  0.10478883    -0.68100
O163        O  0.04412078  0.69247898  0.17434676    -0.68100
O164        O  0.44292861  0.69485691  0.18412415    -0.68100
O165        O  0.41917411  0.82356514  0.11602221    -0.68100
O166        O  0.42136663  0.69821807  0.11401593    -0.68100
O167        O  0.44182843  0.82326682  0.18573168    -0.68200
V168        V  0.03064420  0.75743604  0.14010653     1.35200
V169        V  0.43337544  0.75983656  0.15003491     1.35200
C170        C  0.49506509  0.84612626  0.19082958     0.81200
C171        C  0.46818673  0.67757939  0.09605927     0.81200
C172        C  0.46486998  0.84205836  0.09806886     0.81100
C173        C  0.49667149  0.66973356  0.18950778     0.81100
C174        C  0.50259936  0.00907549  0.25100083     0.01200
O175        O  0.45583307  0.82359522  0.82458781    -0.68100
O176        O  0.45288300  0.69329470  0.89129276    -0.68300
O177        O  0.46411454  0.81680912  0.89594503    -0.68100
O178        O  0.44836653  0.69541720  0.82072183    -0.68100
O179        O  0.05028950  0.68069248  0.82101724    -0.68100
O180        O  0.06612911  0.81067459  0.88855360    -0.68100
O181        O  0.05562171  0.68697076  0.89249215    -0.68100
O182        O  0.05716756  0.80883135  0.81792257    -0.68200
V183        V  0.45718477  0.75730559  0.85778316     1.35200
V184        V  0.05539303  0.74688001  0.85474993     1.35200
C185        C  0.50638441  0.84000021  0.81061316     0.81200
C186        C  0.50257116  0.66987081  0.90424855     0.81200
C187        C  0.51844573  0.83335704  0.90497321     0.81100
C188        C  0.49703991  0.66411120  0.81019840     0.81100
C189        C  0.44546617  0.95101605  0.47933241     0.06000
C190        C  0.44462285  0.95722683  0.51658608     0.06000
C191        C  0.50065077  0.96838039  0.53441584    -0.14500
C192        C  0.05785612  0.97302528  0.51646392     0.06000
C193        C  0.05932125  0.96391840  0.47926629     0.06000
C194        C  0.50303190  0.95404193  0.46128993    -0.14500
H195        H  0.50356285  0.95272805  0.43245784     0.08000
H196        H  0.49924115  0.97456911  0.56306552     0.08000
C197        C  0.50118322  0.90219587  0.21236116    -0.09500
C198        C  0.50385447  0.95142370  0.22872748    -0.11100
C199        C  0.50314138  0.61403257  0.21113901    -0.09500
C200        C  0.50454981  0.56577727  0.22808639    -0.11100
C201        C  0.52623074  0.61662464  0.96168041    -0.12700
C202        C  0.49640787  0.62033169  0.93027591    -0.27900
H203        H  0.05729347  0.65342442  0.97071172     0.16300
H204        H  0.46091638  0.58662352  0.92396835     0.16900
C205        C  0.52919478  0.88003200  0.93267234    -0.12700
C206        C  0.49206532  0.89028184  0.96113990    -0.27900
H207        H  0.07143495  0.90770714  0.92944442     0.16300
H208        H  0.45389146  0.85949240  0.96685120     0.16900
C209        C  0.45457557  0.89001591  0.07101642    -0.12700
C210        C  0.49001150  0.89144871  0.04146983    -0.27900
H211        H  0.41884174  0.92676471  0.07628746     0.16300
H212        H  0.02302908  0.85226696  0.03481747     0.16900
C213        C  0.50399231  0.62102149  0.04186657    -0.12700
C214        C  0.46048574  0.63118897  0.06759051    -0.27900
H215        H  0.04322039  0.65266465  0.03877395     0.16300
H216        H  0.42001996  0.60173932  0.06908600     0.16900
C217        C  0.38718755  0.95278792  0.45808578    -0.12700
C218        C  0.38474187  0.92305309  0.42649200    -0.27900
H219        H  0.35251804  0.54314992  0.46507772     0.16300
H220        H  0.42061909  0.88761812  0.41907868     0.16900
C221        C  0.12724129  0.93000466  0.42928404    -0.12700
C222        C  0.11714745  0.96818078  0.45770970    -0.27900
H223        H  0.09850963  0.88950306  0.42519128     0.16300
H224        H  0.15578597  0.54048277  0.46514764     0.16900
C225        C  0.39608190  0.00259787  0.28920184    -0.09500
C226        C  0.44490966  0.00835301  0.27300010    -0.11100
C227        C  0.10834727  0.00480811  0.29009890    -0.09500
C228        C  0.05975713  0.00853330  0.27330587    -0.11100
C229        C  0.11381106  0.98707528  0.53820606    -0.12700
C230        C  0.12033059  0.95974696  0.57006612    -0.27900
H231        H  0.15674758  0.48544779  0.53486919     0.16300
H232        H  0.09024699  0.92154641  0.57693077     0.16900
C233        C  0.37755619  0.99505119  0.56496914    -0.12700
C234        C  0.38709109  0.95312222  0.53851074    -0.27900
H235        H  0.41304311  0.59626621  0.57301720     0.16300
H236        H  0.35594843  0.91446743  0.53463269     0.16900
C237        C  0.49760322  0.55866418  0.77177119    -0.09500
C238        C  0.49375043  0.60794442  0.78835531    -0.11100
C239        C  0.50157022  0.94414623  0.77201733    -0.09500
C240        C  0.50567769  0.89552248  0.78863733    -0.11100
C241        C  0.05928246  0.99779805  0.72844685    -0.09500
C242        C  0.10881827  0.99256367  0.71236004    -0.11100
C243        C  0.44403823  0.00278216  0.72677307    -0.09500
C244        C  0.39566915  0.00547355  0.70970108    -0.11100
C245        C  0.00060167  0.00096273  0.74972651     0.01200
O246        O  0.69288789  0.49376981  0.60246105    -0.68100
O247        O  0.81922367  0.46557490  0.67217798    -0.68300
O248        O  0.69035029  0.46743481  0.67215044    -0.68100
O249        O  0.81672318  0.49261028  0.60243501    -0.68100
O250        O  0.80862921  0.04029006  0.60646823    -0.68100
O251        O  0.68047857  0.04063147  0.67551463    -0.68100
O252        O  0.80864394  0.04871241  0.67720611    -0.68100
O253        O  0.68511051  0.02806032  0.60413747    -0.68200
V254        V  0.75476354  0.48163383  0.63792962     1.35200
V255        V  0.74579325  0.03760652  0.64122429     1.35200
C256        C  0.67100282  0.54854395  0.59652741     0.81200
C257        C  0.84176670  0.51115998  0.68901397     0.81200
C258        C  0.66538309  0.51378147  0.68899927     0.81100
C259        C  0.83518714  0.54718751  0.59646694     0.81100
O260        O  0.69304691  0.44662165  0.31689625    -0.68100
O261        O  0.82153315  0.42936765  0.38643605    -0.68300
O262        O  0.69627884  0.42668709  0.38707791    -0.68100
O263        O  0.82132697  0.44954132  0.31643178    -0.68100
O264        O  0.81618862  0.03425285  0.32969075    -0.68100
O265        O  0.69166387  0.99860223  0.39803446    -0.68100
O266        O  0.81547657  0.99536568  0.39747750    -0.68100
O267        O  0.68737733  0.03610560  0.33009724    -0.68200
V268        V  0.75789850  0.44009969  0.35164211     1.35200
V269        V  0.75272514  0.01438741  0.36311729     1.35200
C270        C  0.66620542  0.49948314  0.31119694     0.81200
C271        C  0.83836903  0.47638033  0.40420870     0.81200
C272        C  0.67413681  0.47310616  0.40483751     0.81100
C273        C  0.84231995  0.50332990  0.31100800     0.81100
C274        C  0.00259542  0.06336505  0.02029163     0.06000
C275        C  0.01296566  0.06151533  0.98325379     0.06000
C276        C  0.01651308  0.50216777  0.96601701    -0.14500
C277        C  0.00176833  0.44681867  0.98337479     0.06000
C278        C  0.99173780  0.44855383  0.02034028     0.06000
C279        C  0.99450990  0.50616150  0.03851465    -0.14500
H280        H  0.98985844  0.50723864  0.06725753     0.08000
H281        H  0.02474484  0.50075097  0.93755525     0.08000
O282        O  0.53773708  0.32066565  0.17488970    -0.68100
O283        O  0.51770864  0.19570250  0.10387825    -0.68300
O284        O  0.51525266  0.31947966  0.10469659    -0.68100
O285        O  0.53889768  0.19204243  0.17424137    -0.68100
O286        O  0.93818068  0.19518101  0.18446965    -0.68100
O287        O  0.91489529  0.32268867  0.11542686    -0.68100
O288        O  0.91724848  0.19717818  0.11417205    -0.68100
O289        O  0.93708011  0.32373644  0.18528254    -0.68200
V290        V  0.52551996  0.25699563  0.13998724     1.35200
V291        V  0.92886244  0.25954353  0.14990527     1.35200
C292        C  0.99050580  0.34607377  0.19067760     0.81200
C293        C  0.96420304  0.17690674  0.09617735     0.81200
C294        C  0.96089857  0.34143056  0.09779639     0.81100
C295        C  0.99184052  0.16986392  0.18993419     0.81100
C296        C  0.00420175  0.50898957  0.25052498     0.01200
O297        O  0.96042049  0.32531876  0.82348360    -0.68100
O298        O  0.95009262  0.19544581  0.89008874    -0.68300
O299        O  0.96495986  0.31840136  0.89504466    -0.68100
O300        O  0.94935696  0.19758339  0.81940928    -0.68100
O301        O  0.55078880  0.18014569  0.82114931    -0.68100
O302        O  0.56681480  0.30921561  0.88904974    -0.68100
O303        O  0.55226162  0.18627510  0.89267797    -0.68100
O304        O  0.56158465  0.30771855  0.81824621    -0.68200
V305        V  0.95807976  0.25918830  0.85666823     1.35200
V306        V  0.55594007  0.24597951  0.85500275     1.35200
C307        C  0.01211738  0.34004515  0.81018877     0.81200
C308        C  0.99850601  0.17093533  0.90391742     0.81200
C309        C  0.01942123  0.33312873  0.90495897     0.81100
C310        C  0.99773545  0.16496605  0.80966275     0.81100
C311        C  0.94784033  0.50943676  0.48140487     0.06000
C312        C  0.94697117  0.52085500  0.51839556     0.06000
C313        C  0.00408983  0.52563028  0.53645640    -0.14500
C314        C  0.56196437  0.52035633  0.51872647     0.06000
C315        C  0.56277306  0.50797804  0.48185607     0.06000
C316        C  0.00575939  0.50421070  0.46365591    -0.14500
H317        H  0.00645489  0.49938311  0.43490556     0.08000
H318        H  0.00365998  0.53003423  0.56521630     0.08000
C319        C  0.99723161  0.40201533  0.21226985    -0.09500
C320        C  0.00207671  0.45105231  0.22859558    -0.11100
C321        C  0.99833612  0.11455731  0.21194837    -0.09500
C322        C  0.00077063  0.06641476  0.22903070    -0.11100
C323        C  0.02130442  0.11805034  0.96131316    -0.12700
C324        C  0.98999822  0.12265016  0.93045392    -0.27900
H325        H  0.55321984  0.15364404  0.96957063     0.16300
H326        H  0.95311475  0.09012912  0.92474170     0.16900
C327        C  0.03061577  0.37885806  0.93308967    -0.12700
C328        C  0.99279297  0.39005442  0.96116761    -0.27900
H329        H  0.57362174  0.40470785  0.93062349     0.16300
H330        H  0.95316632  0.36074670  0.96621952     0.16900
C331        C  0.95126183  0.38952122  0.07067824    -0.12700
C332        C  0.98756687  0.39075903  0.04145275    -0.27900
H333        H  0.91591797  0.42670064  0.07579898     0.16300
H334        H  0.51913942  0.35121691  0.03491004     0.16900
C335        C  0.00035247  0.12203274  0.04156766    -0.12700
C336        C  0.95708939  0.13062179  0.06759639    -0.27900
H337        H  0.53711074  0.15496423  0.03802936     0.16300
H338        H  0.91768113  0.09983556  0.06930569     0.16900
C339        C  0.89000905  0.50835022  0.45971350    -0.12700
C340        C  0.88632252  0.46867975  0.43179045    -0.27900
H341        H  0.84843934  0.98365437  0.46666692     0.16300
H342        H  0.92126711  0.43055788  0.42828660     0.16900
C343        C  0.62806624  0.46430905  0.43310630    -0.12700
C344        C  0.62122934  0.50503788  0.46054716    -0.27900
H345        H  0.59620739  0.42597829  0.43009287     0.16300
H346        H  0.64885379  0.00575462  0.46332073     0.16900
C347        C  0.89802211  0.51014810  0.28948586    -0.09500
C348        C  0.94692814  0.51196092  0.27291899    -0.11100
C349        C  0.61047345  0.50423652  0.28921972    -0.09500
C350        C  0.56191505  0.50654167  0.27231811    -0.11100
C351        C  0.61983497  0.52082280  0.54036306    -0.12700
C352        C  0.62394350  0.55945189  0.56875017    -0.27900
H353        H  0.64787654  0.02000193  0.52904542     0.16300
H354        H  0.58960067  0.59796703  0.57272957     0.16900
C355        C  0.88164875  0.55818405  0.56870660    -0.12700
C356        C  0.88869041  0.52061352  0.53990037    -0.27900
H357        H  0.90581884  0.03602578  0.56596111     0.16300
H358        H  0.85441910  0.48549124  0.53404210     0.16900
C359        C  0.99755033  0.05933949  0.77148848    -0.09500
C360        C  0.99421902  0.10891769  0.78778055    -0.11100
C361        C  0.00938519  0.44361949  0.77124486    -0.09500
C362        C  0.01384999  0.39510396  0.78794178    -0.11100
C363        C  0.56078883  0.50422132  0.72713928    -0.09500
C364        C  0.60954001  0.50708910  0.71048177    -0.11100
C365        C  0.94619824  0.49912130  0.72737451    -0.09500
C366        C  0.89751025  0.50242759  0.71064297    -0.11100
C367        C  0.00346071  0.50115829  0.74950065     0.01200
O368        O  0.69212063  0.92731143  0.61291079    -0.68100
O369        O  0.82387225  0.94728040  0.67777088    -0.68300
O370        O  0.69597452  0.94027496  0.68320660    -0.68100
O371        O  0.81532718  0.93817835  0.60639985    -0.68100
O372        O  0.81432216  0.59229077  0.61565061    -0.68100
O373        O  0.68815434  0.56716227  0.68509469    -0.68100
O374        O  0.81660725  0.56535763  0.68498080    -0.68100
O375        O  0.68899059  0.59344803  0.61568023    -0.68200
V376        V  0.75683639  0.94021827  0.64529525     1.35200
V377        V  0.75209377  0.57750414  0.65036649     1.35200
C378        C  0.66848996  0.97305631  0.59625751     0.81200
C379        C  0.84016883  0.00070928  0.68790789     0.81200
C380        C  0.66457409  0.99084518  0.69021893     0.81100
C381        C  0.83125586  0.98993827  0.59335384     0.81100
O382        O  0.68940756  0.93860694  0.31238756    -0.68100
O383        O  0.81829117  0.89846163  0.37858103    -0.68300
O384        O  0.69299803  0.90114906  0.38019553    -0.68100
O385        O  0.81781848  0.93717271  0.31123527    -0.68100
O386        O  0.81585827  0.55024871  0.32652174    -0.68100
O387        O  0.69094081  0.52747597  0.39705888    -0.68100
O388        O  0.81466553  0.52996236  0.39693212    -0.68100
O389        O  0.68721571  0.54741718  0.32659560    -0.68200
V390        V  0.75451525  0.92089503  0.34568426     1.35200
V391        V  0.75223311  0.53692668  0.36121194     1.35200
C392        C  0.66436640  0.99321205  0.31115822     0.81200
C393        C  0.83705985  0.93945831  0.40003749     0.81200
C394        C  0.67295831  0.94358834  0.40159634     0.81100
C395        C  0.84062278  0.99113480  0.31024398     0.81100
C396        C  0.00556584  0.56226415  0.02068733     0.06000
C397        C  0.01793454  0.56010208  0.98382373     0.06000
C398        C  0.01179483  0.00359741  0.96540263    -0.14500
C399        C  0.00049211  0.94768516  0.98312572     0.06000
C400        C  0.99288636  0.94919684  0.02027350     0.06000
C401        C  0.99476314  0.00694690  0.03833691    -0.14500
H402        H  0.99173502  0.00800914  0.06714860     0.08000
H403        H  0.01806483  0.00243825  0.93677611     0.08000
O404        O  0.54221414  0.82128396  0.17487251    -0.68100
O405        O  0.52201547  0.69608272  0.10386411    -0.68300
O406        O  0.51948147  0.81994540  0.10468033    -0.68100
O407        O  0.54359505  0.69248792  0.17416939    -0.68100
O408        O  0.94341194  0.69482920  0.18416354    -0.68100
O409        O  0.91990512  0.82350654  0.11604352    -0.68100
O410        O  0.92211362  0.69816531  0.11403631    -0.68100
O411        O  0.94230833  0.82321737  0.18576343    -0.68200
V412        V  0.52999534  0.75748315  0.13996762     1.35200
V413        V  0.93398826  0.75978701  0.15006440     1.35200
C414        C  0.99551303  0.84611366  0.19089963     0.81200
C415        C  0.96899979  0.67750343  0.09614407     0.81200
C416        C  0.96565364  0.84199995  0.09813716     0.81100
C417        C  0.99713258  0.66972484  0.18962260     0.81100
C418        C  0.00256313  0.00909395  0.25103688     0.01200
O419        O  0.95628953  0.82364087  0.82476654    -0.68100
O420        O  0.95347459  0.69340018  0.89150051    -0.68300
O421        O  0.96477332  0.81689647  0.89611131    -0.68100
O422        O  0.94874267  0.69548431  0.82093730    -0.68100
O423        O  0.54992284  0.68072020  0.82087918    -0.68100
O424        O  0.56549270  0.81059991  0.88848816    -0.68100
O425        O  0.55502818  0.68689665  0.89235755    -0.68100
O426        O  0.55674091  0.80886385  0.81785324    -0.68200
V427        V  0.95770723  0.75738097  0.85797463     1.35200
V428        V  0.55488332  0.74685670  0.85464619     1.35200
C429        C  0.00680187  0.83998678  0.81072406     0.81200
C430        C  0.00318447  0.66996817  0.90442469     0.81200
C431        C  0.01913150  0.83344702  0.90507991     0.81100
C432        C  0.99735955  0.66412581  0.81038210     0.81100
C433        C  0.94539398  0.95048142  0.47935727     0.06000
C434        C  0.94459140  0.95669533  0.51661352     0.06000
C435        C  0.00061263  0.96799866  0.53441391    -0.14500
C436        C  0.55795513  0.97316548  0.51649607     0.06000
C437        C  0.55944910  0.96402622  0.47930017     0.06000
C438        C  0.00292202  0.95368958  0.46128709    -0.14500
H439        H  0.00341689  0.95237775  0.43245522     0.08000
H440        H  0.99923089  0.97416980  0.56306550     0.08000
C441        C  0.00151061  0.90222319  0.21239867    -0.09500
C442        C  0.00401981  0.95147567  0.22874688    -0.11100
C443        C  0.00348856  0.61403317  0.21125887    -0.09500
C444        C  0.00472992  0.56577700  0.22819832    -0.11100
C445        C  0.02704059  0.61656562  0.96179671    -0.12700
C446        C  0.99703671  0.62043183  0.93045432    -0.27900
H447        H  0.55630049  0.65361080  0.97063035     0.16300
H448        H  0.96138891  0.58685618  0.92420501     0.16900
C449        C  0.02993153  0.88012976  0.93276581    -0.12700
C450        C  0.99285264  0.89031955  0.96125961    -0.27900
H451        H  0.57075699  0.90753815  0.92939103     0.16300
H452        H  0.95474078  0.85946828  0.96699636     0.16900
C453        C  0.95542123  0.88999511  0.07110373    -0.12700
C454        C  0.99090349  0.89148895  0.04158050    -0.27900
H455        H  0.91963939  0.92670447  0.07636008     0.16300
H456        H  0.52208793  0.85218770  0.03470502     0.16900
C457        C  0.00496546  0.62089490  0.04199675    -0.12700
C458        C  0.96138145  0.63111217  0.06767226    -0.27900
H459        H  0.54218378  0.65285380  0.03860429     0.16300
H460        H  0.92086804  0.60171663  0.06911438     0.16900
C461        C  0.88708493  0.95215802  0.45813297    -0.12700
C462        C  0.88467961  0.92251343  0.42650952    -0.27900
H463        H  0.85256257  0.54332554  0.46500648     0.16300
H464        H  0.92059866  0.88714110  0.41906557     0.16900
C465        C  0.62728091  0.92980095  0.42934424    -0.12700
C466        C  0.61733235  0.96801367  0.45777035    -0.27900
H467        H  0.59840697  0.88940297  0.42525442     0.16300
H468        H  0.65573858  0.54047013  0.46517026     0.16900
C469        C  0.89606073  0.00223038  0.28920913    -0.09500
C470        C  0.94487359  0.00814536  0.27302068    -0.11100
C471        C  0.60838041  0.00460315  0.29008329    -0.09500
C472        C  0.55981026  0.00838901  0.27326834    -0.11100
C473        C  0.61393714  0.98700977  0.53826145    -0.12700
C474        C  0.62029738  0.95972774  0.57014428    -0.27900
H475        H  0.65678581  0.48540356  0.53487019     0.16300
H476        H  0.59004691  0.92167423  0.57703091     0.16900
C477        C  0.87753877  0.99458946  0.56498498    -0.12700
C478        C  0.88709834  0.95256580  0.53857287    -0.27900
H479        H  0.91306985  0.59655120  0.57293306     0.16300
H480        H  0.85601391  0.91384573  0.53475735     0.16900
C481        C  0.99764545  0.55869054  0.77194274    -0.09500
C482        C  0.99394038  0.60795976  0.78854501    -0.11100
C483        C  0.00181827  0.94405910  0.77207721    -0.09500
C484        C  0.00603425  0.89546317  0.78871522    -0.11100
C485        C  0.55921320  0.99776857  0.72841255    -0.09500
C486        C  0.60878417  0.99247279  0.71236486    -0.11100
C487        C  0.94412062  0.00250167  0.72682754    -0.09500
C488        C  0.89575152  0.00509457  0.70975538    -0.11100
loop_ 
_geom_bond_atom_site_label_1 
_geom_bond_atom_site_label_2 
_geom_bond_distance 
_geom_bond_site_symmetry_2 
_ccdc_geom_bond_type 
C1          C115   1.481       .  S
C1          C239   1.482   1_545  S
C1          C485   1.480   1_545  S
C1          C243   1.481       .  S
O2           V10   1.891       .  S
O2           C12   1.262       .  A
O3           V10   1.909       .  S
O3           C13   1.265       .  A
O4           V10   1.912       .  S
O4           C14   1.266       .  A
O5           V10   1.896       .  S
O5           C15   1.264       .  A
O6           V11   1.869       .  S
O6          C137   1.254   1_545  A
O7           V11   1.892       .  S
O7          C136   1.259   1_545  A
O8           V11   1.926       .  S
O8          C135   1.272       .  A
O9           V11   1.919       .  S
O9          C134   1.270   1_545  A
V10         V133   2.089       .  T
V11         V132   2.087   1_545  T
C12         O131   1.263       .  A
C12         C108   1.464       .  S
C13         O130   1.265       .  A
C13         C122   1.449       .  S
C14         O129   1.263       .  A
C14         C120   1.447       .  S
C15         O128   1.261       .  A
C15         C111   1.462       .  S
O16          V24   1.907       .  S
O16          C26   1.264       .  A
O17          V24   1.896       .  S
O17          C27   1.262       .  A
O18          V24   1.898       .  S
O18          C28   1.263       .  A
O19          V24   1.905       .  S
O19          C29   1.264       .  A
O20          V25   1.905       .  S
O20         C151   1.263   1_545  A
O21          V25   1.886   1_565  S
O21         C150   1.261       .  A
O22          V25   1.897   1_565  S
O22         C149   1.265       .  A
O23          V25   1.915       .  S
O23         C148   1.267   1_545  A
V24         V147   2.089       .  T
V25         V146   2.089   1_545  T
C26         O145   1.266       .  A
C26         C105   1.449       .  S
C27         O144   1.264       .  A
C27          C96   1.464       .  S
C28         O143   1.263       .  A
C28          C99   1.462       .  S
C29         O142   1.265       .  A
C29         C103   1.446       .  S
C30          C91   1.476       .  S
C30          C31   1.409   1_554  A
C30         C157   1.402       .  A
C31          C79   1.483       .  S
C31         C154   1.400       .  A
C32          C33   1.399       .  A
C32         C153   1.399       .  A
C32          H37   1.083       .  S
C33          C84   1.481       .  S
C33          C34   1.405   1_556  A
C34          C88   1.478       .  S
C34          C35   1.402       .  A
C35         C152   1.404       .  A
C35          H36   1.084       .  S
O38          V46   1.903       .  S
O38         C292   1.263   1_455  A
O39          V46   1.886       .  S
O39         C293   1.261   1_455  A
O40          V46   1.897       .  S
O40         C294   1.265   1_455  A
O41          V46   1.914       .  S
O41         C295   1.267   1_455  A
O42          V47   1.904       .  S
O42          C51   1.263       .  A
O43          V47   1.894       .  S
O43          C50   1.261       .  A
O44          V47   1.903       .  S
O44          C49   1.265       .  A
O45          V47   1.911       .  S
O45          C48   1.266       .  A
V46         V291   2.089   1_455  T
V47         V290   2.089       .  T
C48         O282   1.263       .  A
C48          C75   1.447       .  S
C49         O283   1.261       .  A
C49          C92   1.463       .  S
C50         O284   1.265       .  A
C50          C87   1.463       .  S
C51         O285   1.267       .  A
C51          C77   1.450       .  S
C52          C76   1.479       .  S
C52         C104   1.478       .  S
C52         C200   1.480       .  S
C52         C350   1.482       .  S
O53          V61   1.893       .  S
O53          C63   1.259       .  A
O54          V61   1.872       .  S
O54          C64   1.255       .  A
O55          V61   1.916       .  S
O55          C65   1.269       .  A
O56          V61   1.923       .  S
O56          C66   1.271       .  A
O57          V62   1.890       .  S
O57         C310   1.258   1_455  A
O58          V62   1.869       .  S
O58         C309   1.254       .  A
O59          V62   1.917       .  S
O59         C308   1.269   1_455  A
O60          V62   1.924       .  S
O60         C307   1.271       .  A
V61         V306   2.087       .  T
V62         V305   2.087   1_455  T
C63         O304   1.271       .  A
C63         C118   1.449       .  S
C64         O303   1.269       .  A
C64          C80   1.456       .  S
C65         O302   1.254       .  A
C65          C83   1.457       .  S
C66         O301   1.258       .  A
C66         C116   1.447       .  S
C67          C95   1.480       .  S
C67          C68   1.409       .  A
C67          C72   1.400       .  A
C68         C112   1.479       .  S
C68          C69   1.402       .  A
C69         C314   1.400       .  A
C69          H74   1.084       .  S
C70         C107   1.480       .  S
C70          C71   1.408       .  A
C70         C313   1.400       .  A
C71         C100   1.477       .  S
C71         C316   1.400       .  A
C72         C315   1.400       .  A
C72          H73   1.084       .  S
C75          C76   1.214       .  T
C77          C78   1.216       .  T
C78         C174   1.482       .  S
C79          C80   1.343       .  D
C79         H325   1.086       .  S
C80          H82   1.088       .  S
H81         C323   1.086       .  S
C83          C84   1.339       .  D
C83         H329   1.088       .  S
C84          H86   1.086       .  S
H85         C327   1.088       .  S
C87          C88   1.342       .  D
C87          H89   1.087       .  S
C88         H334   1.087       .  S
H90         C332   1.087   1_455  S
C91          C92   1.348       .  D
C91         H337   1.086       .  S
C92          H94   1.087       .  S
H93         C335   1.086       .  S
C95          C96   1.345       .  D
C95         H219   1.087       .  S
C96          H98   1.087       .  S
H97         C217   1.087       .  S
C99         C100   1.345       .  D
C99         H101   1.087       .  S
C100        H224   1.087       .  S
H102        C222   1.086   1_545  S
C103        C104   1.214       .  T
C105        C106   1.215       .  T
C106        C296   1.481       .  S
C107        C108   1.346       .  D
C107        H231   1.087       .  S
C108        H110   1.087       .  S
H109        C229   1.086   1_545  S
C111        C112   1.344       .  D
C111        H235   1.087       .  S
C112        H114   1.087       .  S
H113        C233   1.088   1_545  S
C115        C116   1.215       .  T
C117        C123   1.482       .  S
C117        C118   1.216       .  T
C119        C367   1.480       .  S
C119        C120   1.214       .  T
C121        C123   1.480       .  S
C121        C122   1.215       .  T
C123        C237   1.482       .  S
C123        C363   1.480       .  S
O124        V132   1.868       .  S
O124        C134   1.254       .  A
O125        V132   1.891       .  S
O125        C135   1.258   1_565  A
O126        V132   1.923       .  S
O126        C136   1.271       .  A
O127        V132   1.916       .  S
O127        C137   1.269       .  A
O128        V133   1.894       .  S
O129        V133   1.903       .  S
O130        V133   1.908       .  S
O131        V133   1.900       .  S
C134        C230   1.457       .  S
C135        C244   1.449       .  S
C136        C242   1.447       .  S
C137        C233   1.456       .  S
O138        V146   1.901       .  S
O138        C148   1.263       .  A
O139        V146   1.891       .  S
O139        C149   1.260       .  A
O140        V146   1.902       .  S
O140        C150   1.265       .  A
O141        V146   1.909       .  S
O141        C151   1.266       .  A
O142        V147   1.908       .  S
O143        V147   1.890       .  S
O144        V147   1.896       .  S
O145        V147   1.912       .  S
C148        C227   1.448   1_565  S
C149        C218   1.461       .  S
C150        C221   1.463       .  S
C151        C225   1.447   1_565  S
C152        C213   1.477       .  S
C152        C153   1.409   1_554  A
C153        C201   1.486       .  S
C154        C155   1.400   1_545  A
C154        H159   1.084       .  S
C155        C206   1.480       .  S
C155        C156   1.405   1_556  A
C156        C210   1.476       .  S
C156        C157   1.401   1_565  A
C157        H158   1.085       .  S
O160        V168   1.905       .  S
O160        C414   1.263   1_455  A
O161        V168   1.888       .  S
O161        C415   1.261   1_455  A
O162        V168   1.897       .  S
O162        C416   1.265   1_455  A
O163        V168   1.914       .  S
O163        C417   1.267   1_455  A
O164        V169   1.902       .  S
O164        C173   1.263       .  A
O165        V169   1.892       .  S
O165        C172   1.260       .  A
O166        V169   1.901       .  S
O166        C171   1.264       .  A
O167        V169   1.908       .  S
O167        C170   1.266       .  A
V168        V413   2.090   1_455  T
V169        V412   2.090       .  T
C170        O404   1.263       .  A
C170        C197   1.446       .  S
C171        O405   1.261       .  A
C171        C214   1.463       .  S
C172        O406   1.265       .  A
C172        C209   1.460       .  S
C173        O407   1.267       .  A
C173        C199   1.448       .  S
C174        C198   1.479   1_545  S
C174        C226   1.479       .  S
C174        C472   1.481       .  S
O175        V183   1.894       .  S
O175        C185   1.259       .  A
O176        V183   1.871       .  S
O176        C186   1.255       .  A
O177        V183   1.914       .  S
O177        C187   1.269       .  A
O178        V183   1.923       .  S
O178        C188   1.271       .  A
O179        V184   1.893       .  S
O179        C432   1.259   1_455  A
O180        V184   1.872       .  S
O180        C431   1.255       .  A
O181        V184   1.918       .  S
O181        C430   1.269       .  A
O182        V184   1.924       .  S
O182        C429   1.271       .  A
V183        V428   2.087       .  T
V184        V427   2.087   1_455  T
C185        O426   1.271       .  A
C185        C240   1.450       .  S
C186        O425   1.269       .  A
C186        C202   1.456       .  S
C187        O424   1.255       .  A
C187        C205   1.457       .  S
C188        O423   1.259       .  A
C188        C238   1.448       .  S
C189        C217   1.478       .  S
C189        C190   1.405       .  A
C189        C194   1.403       .  A
C190        C234   1.480       .  S
C190        C191   1.398       .  A
C191        C436   1.399       .  A
C191        H196   1.084       .  S
C192        C229   1.486       .  S
C192        C435   1.399       .  A
C192        C193   1.410       .  A
C193        C222   1.478       .  S
C193        C438   1.404       .  A
C194        C437   1.404       .  A
C194        H195   1.084       .  S
C197        C198   1.214       .  T
C199        C200   1.215       .  T
C201        C202   1.344       .  D
C201        H447   1.086       .  S
C202        H204   1.088       .  S
H203        C445   1.086       .  S
C205        C206   1.339       .  D
C205        H451   1.088       .  S
C206        H208   1.086       .  S
H207        C449   1.088       .  S
C209        C210   1.342       .  D
C209        H211   1.087       .  S
C210        H456   1.087       .  S
H212        C454   1.087   1_455  S
C213        C214   1.347       .  D
C213        H459   1.086       .  S
C214        H216   1.087       .  S
H215        C457   1.086       .  S
C217        C218   1.342       .  D
C218        H220   1.087       .  S
C221        C222   1.347       .  D
C221        H223   1.087       .  S
C225        C226   1.214       .  T
C227        C228   1.215       .  T
C228        C418   1.480       .  S
C229        C230   1.342       .  D
C230        H232   1.088       .  S
C233        C234   1.339       .  D
C234        H236   1.086       .  S
C237        C238   1.215       .  T
C239        C240   1.216       .  T
C241        C245   1.480   1_565  S
C241        C242   1.215       .  T
C243        C244   1.216       .  T
C245        C359   1.481   1_455  S
C245        C483   1.482   1_545  S
C245        C487   1.481   1_455  S
O246        V254   1.891       .  S
O246        C256   1.262       .  A
O247        V254   1.909       .  S
O247        C257   1.265       .  A
O248        V254   1.912       .  S
O248        C258   1.266       .  A
O249        V254   1.895       .  S
O249        C259   1.264       .  A
O250        V255   1.870       .  S
O250        C381   1.254   1_545  A
O251        V255   1.892       .  S
O251        C380   1.259   1_545  A
O252        V255   1.926       .  S
O252        C379   1.272       .  A
O253        V255   1.919       .  S
O253        C378   1.270   1_545  A
V254        V377   2.089       .  T
V255        V376   2.087   1_545  T
C256        O375   1.263       .  A
C256        C352   1.464       .  S
C257        O374   1.265       .  A
C257        C366   1.449       .  S
C258        O373   1.263       .  A
C258        C364   1.447       .  S
C259        O372   1.261       .  A
C259        C355   1.462       .  S
O260        V268   1.907       .  S
O260        C270   1.264       .  A
O261        V268   1.896       .  S
O261        C271   1.262       .  A
O262        V268   1.898       .  S
O262        C272   1.263       .  A
O263        V268   1.905       .  S
O263        C273   1.264       .  A
O264        V269   1.904       .  S
O264        C395   1.263   1_545  A
O265        V269   1.886   1_565  S
O265        C394   1.261       .  A
O266        V269   1.898   1_565  S
O266        C393   1.265       .  A
O267        V269   1.915       .  S
O267        C392   1.267   1_545  A
V268        V391   2.089       .  T
V269        V390   2.089   1_545  T
C270        O389   1.266       .  A
C270        C349   1.450       .  S
C271        O388   1.264       .  A
C271        C340   1.464       .  S
C272        O387   1.263       .  A
C272        C343   1.462       .  S
C273        O386   1.265       .  A
C273        C347   1.446       .  S
C274        C335   1.476       .  S
C274        C275   1.409   1_554  A
C274        C401   1.402   1_455  A
C275        C323   1.483       .  S
C275        C398   1.400       .  A
C276        C397   1.399       .  A
C276        C277   1.399       .  A
C276        H281   1.083       .  S
C277        C328   1.481   1_455  S
C277        C278   1.405   1_456  A
C278        C332   1.477       .  S
C278        C279   1.402       .  A
C279        C396   1.404   1_655  A
C279        H280   1.084       .  S
O282        V290   1.903       .  S
O283        V290   1.886       .  S
O284        V290   1.897       .  S
O285        V290   1.914       .  S
O286        V291   1.904       .  S
O286        C295   1.263       .  A
O287        V291   1.894       .  S
O287        C294   1.261       .  A
O288        V291   1.903       .  S
O288        C293   1.265       .  A
O289        V291   1.911       .  S
O289        C292   1.266       .  A
C292        C319   1.447       .  S
C293        C336   1.463       .  S
C294        C331   1.462       .  S
C295        C321   1.450       .  S
C296        C320   1.479       .  S
C296        C444   1.480       .  S
C296        C348   1.478   1_455  S
O297        V305   1.894       .  S
O297        C307   1.259   1_655  A
O298        V305   1.872       .  S
O298        C308   1.255       .  A
O299        V305   1.916       .  S
O299        C309   1.269   1_655  A
O300        V305   1.924       .  S
O300        C310   1.271       .  A
O301        V306   1.890       .  S
O302        V306   1.870       .  S
O303        V306   1.917       .  S
O304        V306   1.924       .  S
C307        C362   1.449       .  S
C308        C324   1.456       .  S
C309        C327   1.457       .  S
C310        C360   1.447       .  S
C311        C339   1.480       .  S
C311        C312   1.409       .  A
C311        C316   1.400   1_655  A
C312        C356   1.479       .  S
C312        C313   1.402   1_655  A
C313        H318   1.084       .  S
C314        C351   1.479       .  S
C314        C315   1.408       .  A
C315        C344   1.477       .  S
C316        H317   1.084       .  S
C319        C320   1.214   1_655  T
C321        C322   1.216   1_655  T
C322        C418   1.482       .  S
C323        C324   1.343   1_455  D
C324        H326   1.088       .  S
C327        C328   1.339   1_455  D
C328        H330   1.086       .  S
C331        C332   1.342       .  D
C331        H333   1.087       .  S
C335        C336   1.348   1_455  D
C336        H338   1.087       .  S
C339        C340   1.345       .  D
C339        H463   1.087       .  S
C340        H342   1.087       .  S
H341        C461   1.087       .  S
C343        C344   1.345       .  D
C343        H345   1.087       .  S
C344        H468   1.087       .  S
H346        C466   1.086   1_545  S
C347        C348   1.214       .  T
C349        C350   1.215       .  T
C351        C352   1.346       .  D
C351        H475   1.087       .  S
C352        H354   1.087       .  S
H353        C473   1.086   1_545  S
C355        C356   1.344       .  D
C355        H479   1.087       .  S
C356        H358   1.087       .  S
H357        C477   1.088   1_545  S
C359        C360   1.215       .  T
C361        C367   1.482       .  S
C361        C362   1.216       .  T
C363        C364   1.214       .  T
C365        C367   1.480   1_655  S
C365        C366   1.215       .  T
C367        C481   1.482   1_455  S
O368        V376   1.869       .  S
O368        C378   1.254       .  A
O369        V376   1.891       .  S
O369        C379   1.258   1_565  A
O370        V376   1.923       .  S
O370        C380   1.271       .  A
O371        V376   1.916       .  S
O371        C381   1.269       .  A
O372        V377   1.894       .  S
O373        V377   1.903       .  S
O374        V377   1.908       .  S
O375        V377   1.900       .  S
C378        C474   1.457       .  S
C379        C488   1.449       .  S
C380        C486   1.447       .  S
C381        C477   1.456       .  S
O382        V390   1.901       .  S
O382        C392   1.263       .  A
O383        V390   1.891       .  S
O383        C393   1.260       .  A
O384        V390   1.902       .  S
O384        C394   1.265       .  A
O385        V390   1.910       .  S
O385        C395   1.266       .  A
O386        V391   1.908       .  S
O387        V391   1.890       .  S
O388        V391   1.896       .  S
O389        V391   1.912       .  S
C392        C471   1.448   1_565  S
C393        C462   1.462       .  S
C394        C465   1.463       .  S
C395        C469   1.447   1_565  S
C396        C457   1.476       .  S
C396        C397   1.409   1_554  A
C397        C445   1.486       .  S
C398        C399   1.400   1_545  A
C398        H403   1.084       .  S
C399        C450   1.480   1_455  S
C399        C400   1.405   1_456  A
C400        C454   1.476       .  S
C400        C401   1.401   1_565  A
C401        H402   1.085       .  S
O404        V412   1.905       .  S
O405        V412   1.888       .  S
O406        V412   1.897       .  S
O407        V412   1.914       .  S
O408        V413   1.902       .  S
O408        C417   1.263       .  A
O409        V413   1.891       .  S
O409        C416   1.260       .  A
O410        V413   1.900       .  S
O410        C415   1.264       .  A
O411        V413   1.908       .  S
O411        C414   1.265       .  A
C414        C441   1.446   1_655  S
C415        C458   1.463       .  S
C416        C453   1.460       .  S
C417        C443   1.448   1_655  S
C418        C442   1.478   1_545  S
C418        C470   1.479   1_455  S
O419        V427   1.894       .  S
O419        C429   1.259   1_655  A
O420        V427   1.871       .  S
O420        C430   1.255   1_655  A
O421        V427   1.914       .  S
O421        C431   1.269   1_655  A
O422        V427   1.922       .  S
O422        C432   1.271       .  A
O423        V428   1.893       .  S
O424        V428   1.872       .  S
O425        V428   1.918       .  S
O426        V428   1.924       .  S
C429        C484   1.450       .  S
C430        C446   1.456   1_455  S
C431        C449   1.457       .  S
C432        C482   1.448       .  S
C433        C461   1.478       .  S
C433        C434   1.405       .  A
C433        C438   1.403   1_655  A
C434        C478   1.480       .  S
C434        C435   1.398   1_655  A
C435        H440   1.084   1_455  S
C436        C473   1.486       .  S
C436        C437   1.410       .  A
C437        C466   1.478       .  S
C438        H439   1.084       .  S
C441        C442   1.214       .  T
C443        C444   1.215       .  T
C445        C446   1.344   1_455  D
C446        H448   1.088       .  S
C449        C450   1.339   1_455  D
C450        H452   1.086       .  S
C453        C454   1.342       .  D
C453        H455   1.087       .  S
C457        C458   1.347   1_455  D
C458        H460   1.087       .  S
C461        C462   1.342       .  D
C462        H464   1.087       .  S
C465        C466   1.348       .  D
C465        H467   1.087       .  S
C469        C470   1.214       .  T
C471        C472   1.215       .  T
C473        C474   1.343       .  D
C474        H476   1.088       .  S
C477        C478   1.340       .  D
C478        H480   1.086       .  S
C481        C482   1.215       .  T
C483        C484   1.216       .  T
C485        C486   1.215       .  T
C487        C488   1.215       .  T
