geometry optimzed in LAMMPS
_audit_creation_date              2020-11-30 
_audit_creation_method            'lammps2cif' 
_symmetry_space_group_name_H-M    'P1' 
_symmetry_Int_Tables_number       1 
_symmetry_cell_setting            triclinic 
loop_ 
_symmetry_equiv_pos_as_xyz 
  x,y,z 
_cell_length_a                    30.324241977610495 
_cell_length_b                    30.790987507474995 
_cell_length_c                    33.538916089230476 
_cell_angle_alpha                 89.50812289128446 
_cell_angle_beta                  90.75136063203236 
_cell_angle_gamma                 118.35820003410653 
loop_ 
_atom_site_label 
_atom_site_type_symbol 
_atom_site_fract_x 
_atom_site_fract_y 
_atom_site_fract_z 
_atom_site_charge 
C1          C  0.16474076  0.33112705  0.37844558    -0.03210
C2          C  0.34459055  0.17476134  0.18427719    -0.03210
C3          C  0.17709790  0.33117189  0.19749254    -0.03210
C4          C  0.34831360  0.17849758  0.37912716    -0.03210
O5          O  0.05064638  0.40377894  0.49151015    -0.88900
C6          C  0.34890648  0.42780373  0.09201898     1.11140
O7          O  0.04130200  0.47803458  0.03446939    -1.36710
O8          O  0.36485773  0.40561837  0.48702671    -0.90380
O9          O  0.12570262  0.46788807  0.49344303    -0.91050
O10         O  0.08326198  0.04492863  0.44794089    -0.79870
O11         O  0.45358011  0.39232684  0.99345866    -1.01960
C12         C  0.45433923  0.06708924  0.46234554     1.21180
O13         O  0.03836357  0.06374543  0.03613497    -1.36850
Mn14       Mn  0.01013790  0.00500851  0.08154073     1.82050
O15         O  0.47859097  0.04561452  0.44832408    -0.78950
O16         O  0.35713532  0.47393749  0.49081567    -0.88340
C17         C  0.44911280  0.06013252  0.10984136     1.12270
C18         C  0.34559928  0.43248834  0.47618545     1.06990
O19         O  0.08005378  0.03826110  0.12305937    -0.79890
O20         O  0.45203038  0.47854519  0.03367012    -1.33580
O21         O  0.12387868  0.06077264  0.07233004    -0.99100
C22         C  0.08308939  0.16477609  0.48169997     1.05710
Mn23       Mn  0.40612135  0.01500052  0.03511106     1.48570
O24         O  0.11597685  0.15342086  0.49347846    -0.88290
Mn25       Mn  0.12217724  0.01293741  0.03541655     1.49560
O26         O  0.05161976  0.39890282  0.07845556    -0.92170
C27         C  0.45697587  0.39620943  0.45685766     1.18900
C28         C  0.09564136  0.42435056  0.09195128     1.10960
Mn29       Mn  0.01232072  0.00866134  0.48819146     1.80970
O30         O  0.44939716  0.06167267  0.07379619    -0.97320
Mn31       Mn  0.00495661  0.39979342  0.03350481     1.49260
C32         C  0.09383673  0.42752407  0.47881354     1.07480
Mn33       Mn  0.99918823  0.10609833  0.03870981     1.49930
C34         C  0.08584008  0.16048851  0.09827570     1.10380
O35         O  0.13016053  0.06621478  0.49796454    -1.03130
O36         O  0.36156933  0.47061116  0.07921220    -0.92790
C37         C  0.12910951  0.06806830  0.46160335     1.21670
O38         O  0.45100467  0.06524661  0.49862622    -1.03510
O39         O  0.36231550  0.39859585  0.07677207    -0.90910
O40         O  0.04284799  0.14939729  0.08534202    -0.90520
O41         O  0.12448970  0.46693670  0.07910389    -0.90540
Mn42       Mn  0.40910715  0.40042668  0.03159378     1.47860
O43         O  0.47247364  0.03704692  0.12368177    -0.79020
C44         C  0.12483841  0.06035050  0.10830778     1.14720
O45         O  0.48071032  0.44195765  0.44507448    -0.77750
O46         O  0.47705891  0.43522081  0.12092884    -0.77360
Mn47       Mn  0.11790931  0.10638123  0.03650777     1.51060
O48         O  0.04126527  0.15072324  0.49682706    -0.89720
O49         O  0.45343986  0.39222086  0.06963094    -0.97240
O50         O  0.11388439  0.14592544  0.08268531    -0.92260
C51         C  0.45386292  0.39128365  0.10579209     1.12510
C52         C  0.39207742  0.10399339  0.45547610    -0.02570
C53         C  0.43097478  0.09634623  0.43893408     0.07110
C54         C  0.44498506  0.11772408  0.40035735    -0.02680
C55         C  0.42692815  0.15056933  0.38341799    -0.02690
C56         C  0.38166781  0.15151959  0.39792562     0.07240
C57         C  0.36232921  0.11747680  0.43030654    -0.02880
Br58       Br  0.30608936  0.05765825  0.41655970    -0.01430
Br59       Br  0.36371851  0.07895444  0.50700781    -0.01500
Br60       Br  0.46341637  0.18391993  0.33688423    -0.01460
Br61       Br  0.98025920  0.09399810  0.36718565    -0.01440
C62         C  0.19159490  0.09129461  0.39751034    -0.02570
C63         C  0.18240882  0.09825441  0.43804864     0.07110
C64         C  0.22821970  0.13238738  0.45807594    -0.02680
C65         C  0.27880648  0.15106915  0.44184397    -0.02690
C66         C  0.28917781  0.14730130  0.39997897     0.07240
C67         C  0.24217601  0.11230561  0.38020778    -0.02880
Br68       Br  0.24416205  0.07871677  0.33353018    -0.01430
Br69       Br  0.13374802  0.04731108  0.36600631    -0.01500
Br70       Br  0.33368365  0.18590944  0.47915282    -0.01460
Br71       Br  0.22231710  0.16552946  0.00464639    -0.01440
C72         C  0.38016382  0.31718231  0.42621112    -0.02570
C73         C  0.43226583  0.34589267  0.43035679     0.07110
C74         C  0.45498832  0.32943166  0.40132247    -0.02680
C75         C  0.42853873  0.27932039  0.38295387    -0.02690
C76         C  0.37855103  0.24043470  0.39353763     0.07240
C77         C  0.35516255  0.26604212  0.41264801    -0.02880
Br78       Br  0.28752129  0.24184084  0.40490332    -0.01430
Br79       Br  0.35554597  0.35868176  0.40354957    -0.01500
Br80       Br  0.44678434  0.27784558  0.33014767    -0.01460
Br81       Br  0.01104017  0.38297272  0.37527843    -0.01440
C82         C  0.18193159  0.26112047  0.15704432    -0.02590
C83         C  0.15379994  0.27609767  0.18241120     0.07110
C84         C  0.10437194  0.23782149  0.19024084    -0.02680
C85         C  0.08282795  0.19616864  0.16490071    -0.02690
C86         C  0.10788352  0.19643209  0.12980979     0.07240
C87         C  0.15825893  0.23000530  0.12600242    -0.02880
Br88       Br  0.19515268  0.23991282  0.07684820    -0.01430
Br89       Br  0.25037981  0.27547841  0.16355584    -0.01500
Br90       Br  0.02651742  0.13614527  0.18205492    -0.01460
Br91       Br  0.07120817  0.23340334  0.23941425    -0.01440
C92         C  0.09829183  0.33448586  0.16829431    -0.02570
C93         C  0.14787054  0.35876200  0.18247895     0.07110
C94         C  0.17520374  0.41017382  0.17437817    -0.02680
C95         C  0.16004445  0.43124508  0.14396054    -0.02690
C96         C  0.11360509  0.40318204  0.12411862     0.07240
C97         C  0.08428710  0.35335382  0.13533034    -0.02880
Br98       Br  0.03485209  0.30602051  0.09954710    -0.01430
Br99       Br  0.05147009  0.32095833  0.20863927    -0.01500
Br100      Br  0.21210005  0.49172291  0.12380139    -0.01460
Br101      Br  0.23714632  0.45076798  0.20269080    -0.01440
C102        C  0.27782761  0.37808570  0.18787042    -0.02570
C103        C  0.22743064  0.35845617  0.17275352     0.07110
C104        C  0.22248608  0.36501635  0.13012024    -0.02680
C105        C  0.26293390  0.39773508  0.10823300    -0.02690
C106        C  0.31020765  0.40867000  0.12164490     0.07240
C107        C  0.31787637  0.39698759  0.16068705    -0.02880
Br108      Br  0.38263778  0.40586585  0.17652721    -0.01430
Br109      Br  0.29591343  0.37618297  0.24251862    -0.01500
Br110      Br  0.25317902  0.42484825  0.05810595    -0.01460
Br111      Br  0.16300863  0.33044320  0.09741174    -0.01440
C112        C  0.38753745  0.06883797  0.16356490    -0.02570
C113        C  0.42365615  0.08822153  0.13230299     0.07110
C114        C  0.43186885  0.13619561  0.11997627    -0.02680
C115        C  0.41675760  0.16510980  0.14361633    -0.02690
C116        C  0.37397778  0.14439726  0.16839495     0.07240
C117        C  0.35925046  0.09348553  0.17702350    -0.02880
Br118      Br  0.30756755  0.06153292  0.21482936    -0.01430
Br119      Br  0.37969430  0.01163905  0.19119490    -0.01500
Br120      Br  0.47207648  0.22198750  0.16193411    -0.01460
Br121      Br  0.96026050  0.16635736  0.06988856    -0.01440
C122        C  0.23770567  0.12437218  0.18774106    -0.02570
C123        C  0.28489139  0.14088913  0.16630671     0.07110
C124        C  0.27393476  0.12148841  0.12569352    -0.02680
C125        C  0.22372303  0.09587452  0.10832206    -0.02690
C126        C  0.17879618  0.08621194  0.12939372     0.07240
C127        C  0.18814582  0.10326183  0.16911646    -0.02880
Br128      Br  0.13137605  0.09720833  0.19901508    -0.01430
Br129      Br  0.23139323  0.11020699  0.24304675    -0.01500
Br130      Br  0.21859475  0.07042671  0.05447575    -0.01460
Br131      Br  0.32676046  0.13475878  0.08779979    -0.01440
C132        C  0.36010406  0.24842742  0.12663205    -0.02570
C133        C  0.37212374  0.23382223  0.16497019     0.07110
C134        C  0.41173265  0.27818688  0.18431302    -0.02680
C135        C  0.43561837  0.32818598  0.16715142    -0.02690
C136        C  0.42693024  0.33831987  0.12731504     0.07240
C137        C  0.39114564  0.29488775  0.10678889    -0.02880
Br138      Br  0.38109786  0.29604119  0.04956557    -0.01430
Br139      Br  0.29345113  0.22081872  0.10513406    -0.01500
Br140      Br  0.98360751  0.38405182  0.19785685    -0.01460
Br141      Br  0.43675405  0.27508608  0.23565995    -0.01440
C142        C  0.37117891  0.15586979  0.26111198    -0.02570
C143        C  0.34739352  0.17665424  0.23492932     0.07110
C144        C  0.32732646  0.20149213  0.25894808    -0.02680
C145        C  0.32249791  0.19736762  0.30235263    -0.02690
C146        C  0.34430954  0.17444352  0.32825172     0.07240
C147        C  0.36037056  0.14640682  0.30330903    -0.02880
Br148      Br  0.35375947  0.08299348  0.31971199    -0.01430
Br149      Br  0.42854475  0.14863375  0.24551362    -0.01500
Br150      Br  0.26416099  0.19981681  0.31892005    -0.01460
Br151      Br  0.30723948  0.24469885  0.23293755    -0.01440
C152        C  0.10134736  0.19522711  0.41336698    -0.02570
C153        C  0.09532962  0.20237158  0.45337256     0.07110
C154        C  0.10303444  0.24718172  0.46837760    -0.02680
C155        C  0.12940821  0.28852000  0.44544601    -0.02690
C156        C  0.13607280  0.28333884  0.40268264     0.07240
C157        C  0.11565863  0.23442701  0.38688635    -0.02880
Br158      Br  0.09865662  0.21480142  0.33241059    -0.01430
Br159      Br  0.09836500  0.13474062  0.39611086    -0.01500
Br160      Br  0.16148531  0.34945525  0.47717019    -0.01460
Br161      Br  0.08652150  0.25284535  0.02335808    -0.01440
C162        C  0.15937394  0.41125586  0.39108730    -0.02570
C163        C  0.13459125  0.35978077  0.38785207     0.07110
C164        C  0.08450396  0.33517197  0.40425738    -0.02680
C165        C  0.07329494  0.35549629  0.43668112    -0.02690
C166        C  0.10541927  0.40551617  0.44552756     0.07240
C167        C  0.14700167  0.43327194  0.42163954    -0.02880
Br168      Br  0.19246827  0.99937513  0.43365477    -0.01430
Br169      Br  0.19288597  0.45289665  0.34713847    -0.01500
Br170      Br  0.02177547  0.30958819  0.47385430    -0.01460
Br171      Br  0.03406975  0.26848282  0.39353721    -0.01440
C172        C  0.23457299  0.33271982  0.42982422    -0.02570
C173        C  0.22047849  0.35564855  0.39738238     0.07110
C174        C  0.26083216  0.40211895  0.38507570    -0.02680
C175        C  0.30156921  0.42920069  0.41147479    -0.02690
C176        C  0.30277150  0.40997803  0.44933171     0.07240
C177        C  0.26853772  0.36173695  0.45864107    -0.02880
Br178      Br  0.26907415  0.33391006  0.51137799    -0.01430
Br179      Br  0.21090519  0.26355250  0.44156058    -0.01500
Br180      Br  0.36094860  0.98612181  0.39321970    -0.01460
Br181      Br  0.27439560  0.41966160  0.32957541    -0.01440
C182        C  0.19165448  0.30293088  0.26980951    -0.02570
C183        C  0.17811006  0.33341989  0.24509452     0.07110
C184        C  0.15618641  0.35836587  0.26769714    -0.02680
C185        C  0.13938666  0.34233711  0.30593842    -0.02690
C186        C  0.16552813  0.32588384  0.33180291     0.07240
C187        C  0.19487619  0.30846229  0.31181361    -0.02880
Br188      Br  0.23770355  0.28930910  0.33989512    -0.01430
Br189      Br  0.19830468  0.24722485  0.25180041    -0.01500
Br190      Br  0.07066015  0.32645082  0.31194185    -0.01460
Br191      Br  0.14236631  0.41336292  0.25609168    -0.01440
C192        C  0.16475060  0.33105457  0.87843188    -0.03210
C193        C  0.34453991  0.17471716  0.68428540    -0.03210
C194        C  0.17703479  0.33116640  0.69747452    -0.03210
C195        C  0.34834080  0.17856976  0.87914180    -0.03210
O196        O  0.05072405  0.40379987  0.99151026    -0.88900
C197        C  0.34884019  0.42783829  0.59200190     1.11140
O198        O  0.04123694  0.47800224  0.53448257    -1.36710
O199        O  0.36490043  0.40559806  0.98703570    -0.90380
O200        O  0.12578060  0.46791848  0.99338304    -0.91050
O201        O  0.08329558  0.04500229  0.94793290    -0.79870
O202        O  0.45349258  0.39228760  0.49346522    -1.01960
C203        C  0.45436740  0.06711656  0.96235926     1.21180
O204        O  0.03832620  0.06372544  0.53613117    -1.36850
Mn205      Mn  0.01008296  0.00498638  0.58154441     1.82050
O206        O  0.47862325  0.04565185  0.94832701    -0.78950
O207        O  0.35711976  0.47388450  0.99084199    -0.88340
C208        C  0.44907767  0.06012244  0.60983229     1.12270
C209        C  0.34558915  0.43242895  0.97621617     1.06990
O210        O  0.07999286  0.03824225  0.62307542    -0.79890
O211        O  0.45198352  0.47853401  0.53366905    -1.33580
O212        O  0.12381958  0.06076159  0.57234968    -0.99100
C213        C  0.08308880  0.16478294  0.98172398     1.05710
Mn214      Mn  0.40610046  0.01501940  0.53509573     1.48570
O215        O  0.11598585  0.15344482  0.99350748    -0.88290
Mn216      Mn  0.12210758  0.01290760  0.53545627     1.49560
O217        O  0.05153977  0.39886141  0.57845649    -0.92170
C218        C  0.45706513  0.39625868  0.95685164     1.18900
C219        C  0.09554656  0.42431947  0.59197863     1.10960
Mn220      Mn  0.01236555  0.00869706  0.98818855     1.80970
O221        O  0.44937328  0.06167621  0.57378653    -0.97320
Mn222      Mn  0.00487584  0.39975828  0.53350885     1.49260
C223        C  0.09389939  0.42753371  0.97878309     1.07480
Mn224      Mn  0.99916828  0.10609606  0.53869187     1.49930
C225        C  0.08581581  0.16050235  0.59824329     1.10380
O226        O  0.13020489  0.06626744  0.99794886    -1.03130
O227        O  0.36151910  0.47064231  0.57918279    -0.92790
C228        C  0.12914331  0.06815890  0.96158993     1.21670
O229        O  0.45102710  0.06524383  0.99863999    -1.03510
O230        O  0.36224762  0.39861761  0.57677408    -0.90910
O231        O  0.04281867  0.14940316  0.58531723    -0.90520
O232        O  0.12439065  0.46691803  0.57915594    -0.90540
Mn233      Mn  0.40903477  0.40041652  0.53159656     1.47860
O234        O  0.47242159  0.03702386  0.62367567    -0.79020
C235        C  0.12477915  0.06034421  0.60832787     1.14720
O236        O  0.48077589  0.44200700  0.94506899    -0.77750
O237        O  0.47699113  0.43519108  0.62093044    -0.77360
Mn238      Mn  0.11787402  0.10636045  0.53649984     1.51060
O239        O  0.04126818  0.15073462  0.99685195    -0.89720
O240        O  0.45335563  0.39218470  0.56963515    -0.97240
O241        O  0.11385901  0.14593733  0.58265436    -0.92260
C242        C  0.45378580  0.39125108  0.60579601     1.12510
C243        C  0.39221135  0.10415240  0.95556351    -0.02570
C244        C  0.43102585  0.09641529  0.93896834     0.07110
C245        C  0.44494889  0.11771417  0.90035846    -0.02680
C246        C  0.42691138  0.15057858  0.88342920    -0.02690
C247        C  0.38168713  0.15158112  0.89796186     0.07240
C248        C  0.36243920  0.11766232  0.93043968    -0.02880
Br249      Br  0.30594489  0.05789413  0.91704186    -0.01430
Br250      Br  0.36395849  0.07917754  0.00714304    -0.01500
Br251      Br  0.46340472  0.18391765  0.83689167    -0.01460
Br252      Br  0.98003162  0.09383336  0.86712279    -0.01440
C253        C  0.19161729  0.09151649  0.89748004    -0.02570
C254        C  0.18242965  0.09841794  0.93803269     0.07110
C255        C  0.22823376  0.13254741  0.95807139    -0.02680
C256        C  0.27882348  0.15126621  0.94183850    -0.02690
C257        C  0.28920575  0.14743612  0.89998867     0.07240
C258        C  0.24220684  0.11244360  0.88021569    -0.02880
Br259      Br  0.24418483  0.07868754  0.83363595    -0.01430
Br260      Br  0.13377520  0.04764052  0.86591272    -0.01500
Br261      Br  0.33369244  0.18611712  0.97915000    -0.01460
Br262      Br  0.22232199  0.16546151  0.50460091    -0.01440
C263        C  0.38026311  0.31730194  0.92614528    -0.02570
C264        C  0.43236023  0.34595318  0.93034786     0.07110
C265        C  0.45509799  0.32946333  0.90134778    -0.02680
C266        C  0.42862916  0.27935489  0.88297679    -0.02690
C267        C  0.37861956  0.24050877  0.89353666     0.07240
C268        C  0.35524558  0.26616353  0.91258264    -0.02880
Br269      Br  0.28766666  0.24204066  0.90467368    -0.01430
Br270      Br  0.35574304  0.35887751  0.90345711    -0.01500
Br271      Br  0.44682248  0.27787477  0.83015772    -0.01460
Br272      Br  0.01116356  0.38298393  0.87529997    -0.01440
C273        C  0.18190265  0.26116331  0.65699156    -0.02590
C274        C  0.15375986  0.27610721  0.68237463     0.07110
C275        C  0.10434304  0.23781310  0.69021233    -0.02680
C276        C  0.08280762  0.19616810  0.66486783    -0.02690
C277        C  0.10786018  0.19644934  0.62977122     0.07240
C278        C  0.15823077  0.23003826  0.62595417    -0.02880
Br279      Br  0.19512097  0.23993213  0.57679958    -0.01430
Br280      Br  0.25036015  0.27554661  0.66350411    -0.01500
Br281      Br  0.02650313  0.13613564  0.68201725    -0.01460
Br282      Br  0.07118281  0.23336450  0.73939590    -0.01440
C283        C  0.09820701  0.33442920  0.66828171    -0.02570
C284        C  0.14777580  0.35872624  0.68248509     0.07110
C285        C  0.17507740  0.41014678  0.67442868    -0.02680
C286        C  0.15991744  0.43122372  0.64401877    -0.02690
C287        C  0.11350186  0.40314856  0.62414601     0.07240
C288        C  0.08420562  0.35330521  0.63532340    -0.02880
Br289      Br  0.03481889  0.30597981  0.59950559    -0.01430
Br290      Br  0.05136166  0.32086772  0.70861453    -0.01500
Br291      Br  0.21196351  0.49173322  0.62390908    -0.01460
Br292      Br  0.23698567  0.45074077  0.70278752    -0.01440
C293        C  0.27776665  0.37812871  0.68785572    -0.02570
C294        C  0.22736925  0.35849709  0.67273977     0.07110
C295        C  0.22243056  0.36509704  0.63011330    -0.02680
C296        C  0.26287973  0.39785221  0.60824534    -0.02690
C297        C  0.31014876  0.40873761  0.62163685     0.07240
C298        C  0.31781305  0.39702699  0.66067045    -0.02880
Br299      Br  0.38255545  0.40583556  0.67649142    -0.01430
Br300      Br  0.29585854  0.37619542  0.74249465    -0.01500
Br301      Br  0.25312486  0.42505479  0.55816670    -0.01460
Br302      Br  0.16298302  0.33049909  0.59737789    -0.01440
C303        C  0.38752961  0.06882059  0.66357924    -0.02570
C304        C  0.42361363  0.08819710  0.63229528     0.07110
C305        C  0.43179353  0.13615269  0.61995284    -0.02680
C306        C  0.41668716  0.16506856  0.64359604    -0.02690
C307        C  0.37393080  0.14435712  0.66839953     0.07240
C308        C  0.35923290  0.09345383  0.67704232    -0.02880
Br309      Br  0.30758926  0.06148769  0.71487062    -0.01430
Br310      Br  0.37974966  0.01165590  0.69123270    -0.01500
Br311      Br  0.47200314  0.22195472  0.66189170    -0.01460
Br312      Br  0.96013299  0.16626896  0.56983903    -0.01440
C313        C  0.23766067  0.12429863  0.68776947    -0.02570
C314        C  0.28484020  0.14083859  0.66632207     0.07110
C315        C  0.27387578  0.12145422  0.62570477    -0.02680
C316        C  0.22366169  0.09585677  0.60833678    -0.02690
C317        C  0.17873947  0.08619645  0.62941529     0.07240
C318        C  0.18809796  0.10321337  0.66914942    -0.02880
Br319      Br  0.13133913  0.09713055  0.69907665    -0.01430
Br320      Br  0.23136789  0.11002850  0.74306438    -0.01500
Br321      Br  0.21851977  0.07037869  0.55450059    -0.01460
Br322      Br  0.32669103  0.13471432  0.58780301    -0.01440
C323        C  0.36003729  0.24838528  0.62663971    -0.02570
C324        C  0.37206420  0.23378069  0.66497589     0.07110
C325        C  0.41166592  0.27815146  0.68431882    -0.02680
C326        C  0.43554798  0.32815098  0.66715571    -0.02690
C327        C  0.42685676  0.33828458  0.62731984     0.07240
C328        C  0.39107102  0.29484915  0.60679561    -0.02880
Br329      Br  0.38100396  0.29600367  0.54957414    -0.01430
Br330      Br  0.29337715  0.22077563  0.60515553    -0.01500
Br331      Br  0.98353423  0.38402081  0.69785976    -0.01460
Br332      Br  0.43667318  0.27506198  0.73567347    -0.01440
C333        C  0.37114248  0.15585868  0.76113190    -0.02570
C334        C  0.34734219  0.17661875  0.73493759     0.07110
C335        C  0.32725074  0.20144439  0.75894161    -0.02680
C336        C  0.32242872  0.19734538  0.80234740    -0.02690
C337        C  0.34429710  0.17448014  0.82826409     0.07240
C338        C  0.36035138  0.14642674  0.80333637    -0.02880
Br339      Br  0.35371809  0.08301387  0.81978934    -0.01430
Br340      Br  0.42851052  0.14863015  0.74553146    -0.01500
Br341      Br  0.26396603  0.19962938  0.81883711    -0.01460
Br342      Br  0.30711506  0.24459918  0.73289940    -0.01440
C343        C  0.10125690  0.19517238  0.91337682    -0.02570
C344        C  0.09531980  0.20235985  0.95338896     0.07110
C345        C  0.10311310  0.24719324  0.96839493    -0.02680
C346        C  0.12949359  0.28850578  0.94544449    -0.02690
C347        C  0.13609608  0.28328569  0.90267410     0.07240
C348        C  0.11562351  0.23436743  0.88688485    -0.02880
Br349      Br  0.09867288  0.21474892  0.83240006    -0.01430
Br350      Br  0.09807447  0.13460673  0.89612751    -0.01500
Br351      Br  0.16161902  0.34947434  0.97712988    -0.01460
Br352      Br  0.08637242  0.25279247  0.52333142    -0.01440
C353        C  0.15930534  0.41116819  0.89099855    -0.02570
C354        C  0.13457689  0.35968621  0.88785140     0.07110
C355        C  0.08450365  0.33507782  0.90429883    -0.02680
C356        C  0.07333482  0.35543297  0.93672485    -0.02690
C357        C  0.10543647  0.40547574  0.94550056     0.07240
C358        C  0.14691455  0.43321831  0.92151488    -0.02880
Br359      Br  0.19212404  0.99942887  0.93326956    -0.01430
Br360      Br  0.19292785  0.45275290  0.84704110    -0.01500
Br361      Br  0.02186387  0.30957820  0.97395204    -0.01460
Br362      Br  0.03404811  0.26837504  0.89364306    -0.01440
C363        C  0.23461888  0.33258472  0.92976676    -0.02570
C364        C  0.22049194  0.35555518  0.89736839     0.07110
C365        C  0.26080511  0.40206530  0.88511202    -0.02680
C366        C  0.30148099  0.42917539  0.91154953    -0.02690
C367        C  0.30275246  0.40987834  0.94935878     0.07240
C368        C  0.26860271  0.36157476  0.95859437    -0.02880
Br369      Br  0.26919530  0.33367105  0.01128514    -0.01430
Br370      Br  0.21088490  0.26338578  0.94146963    -0.01500
Br371      Br  0.36070088  0.98631631  0.89338942    -0.01460
Br372      Br  0.27449664  0.41957777  0.82961834    -0.01440
C373        C  0.19161979  0.30290255  0.76976501    -0.02570
C374        C  0.17804400  0.33338579  0.74507465     0.07110
C375        C  0.15609577  0.35829209  0.76770139    -0.02680
C376        C  0.13933593  0.34224265  0.80594629    -0.02690
C377        C  0.16552501  0.32582323  0.83178614     0.07240
C378        C  0.19487599  0.30843160  0.81176670    -0.02880
Br379      Br  0.23777430  0.28933546  0.83978818    -0.01430
Br380      Br  0.19823944  0.24718618  0.75173574    -0.01500
Br381      Br  0.07057524  0.32618821  0.81196735    -0.01460
Br382      Br  0.14213439  0.41320968  0.75612435    -0.01440
C383        C  0.16474084  0.83112729  0.37844539    -0.03210
C384        C  0.34459038  0.67476113  0.18427717    -0.03210
C385        C  0.17709799  0.83117216  0.19749230    -0.03210
C386        C  0.34831359  0.67849768  0.37912714    -0.03210
O387        O  0.05064661  0.90377898  0.49151028    -0.88900
C388        C  0.34890659  0.92780444  0.09201902     1.11140
O389        O  0.04130215  0.97803480  0.03446892    -1.36710
O390        O  0.36485785  0.90561827  0.48702661    -0.90380
O391        O  0.12570284  0.96788811  0.49344330    -0.91050
O392        O  0.08326178  0.54492872  0.44794059    -0.79870
O393        O  0.45357944  0.89232673  0.99345844    -1.01960
C394        C  0.45433928  0.56708930  0.46234559     1.21180
O395        O  0.03836359  0.56374519  0.03613525    -1.36850
Mn396      Mn  0.01013768  0.50500831  0.08154106     1.82050
O397        O  0.47859095  0.54561452  0.44832411    -0.78950
O398        O  0.35713535  0.97393733  0.49081559    -0.88340
C399        C  0.44911237  0.56013221  0.10984123     1.12270
C400        C  0.34559937  0.93248820  0.47618534     1.06990
O401        O  0.08005338  0.53826102  0.12305994    -0.79890
O402        O  0.45203037  0.97854538  0.03367009    -1.33580
O403        O  0.12387819  0.56077258  0.07233065    -0.99100
C404        C  0.08308916  0.66477620  0.48169971     1.05710
Mn405      Mn  0.40612097  0.51499990  0.03511098     1.48570
O406        O  0.11597659  0.65342086  0.49347806    -0.88290
Mn407      Mn  0.12217702  0.51293719  0.03541774     1.49560
O408        O  0.05161957  0.89890355  0.07845602    -0.92170
C409        C  0.45697610  0.89620953  0.45685758     1.18900
C410        C  0.09564178  0.92435087  0.09195067     1.10960
Mn411      Mn  0.01232055  0.50866138  0.48819126     1.80970
O412        O  0.44939664  0.56167231  0.07379605    -0.97320
Mn413      Mn  0.00495665  0.89979356  0.03350487     1.49260
C414        C  0.09383699  0.92752415  0.47881372     1.07480
Mn415      Mn  0.99918836  0.60609815  0.03870995     1.49930
C416        C  0.08584020  0.66048858  0.09827562     1.10380
O417        O  0.13016034  0.56621483  0.49796420    -1.03130
O418        O  0.36156941  0.97061184  0.07921217    -0.92790
C419        C  0.12910932  0.56806841  0.46160304     1.21670
O420        O  0.45100473  0.56524666  0.49862626    -1.03510
O421        O  0.36231561  0.89859652  0.07677220    -0.90910
O422        O  0.04284793  0.64939701  0.08534222    -0.90520
O423        O  0.12449058  0.96693634  0.07910213    -0.90540
Mn424      Mn  0.40910679  0.90042694  0.03159373     1.47860
O425        O  0.47247343  0.53704684  0.12368167    -0.79020
C426        C  0.12483800  0.56035059  0.10830837     1.14720
O427        O  0.48071048  0.94195775  0.44507440    -0.77750
O428        O  0.47705877  0.93522059  0.12092867    -0.77360
Mn429      Mn  0.11790937  0.60638090  0.03650795     1.51060
O430        O  0.04126511  0.65072342  0.49682692    -0.89720
O431        O  0.45343946  0.89222066  0.06963074    -0.97240
O432        O  0.11388453  0.64592567  0.08268505    -0.92260
C433        C  0.45386267  0.89128344  0.10579190     1.12510
C434        C  0.39207761  0.60399364  0.45547624    -0.02570
C435        C  0.43097485  0.59634636  0.43893415     0.07110
C436        C  0.44498501  0.61772412  0.40035737    -0.02680
C437        C  0.42692810  0.65056937  0.38341802    -0.02690
C438        C  0.38166777  0.65151966  0.39792566     0.07240
C439        C  0.36232935  0.61747710  0.43030677    -0.02880
Br440      Br  0.30608890  0.55765867  0.41656071    -0.01430
Br441      Br  0.36371892  0.57895484  0.50700806    -0.01500
Br442      Br  0.46341632  0.68391998  0.33688426    -0.01460
Br443      Br  0.98025895  0.59399805  0.36718549    -0.01440
C444        C  0.19159483  0.59129501  0.39751006    -0.02570
C445        C  0.18240865  0.59825468  0.43804837     0.07110
C446        C  0.22821950  0.63238763  0.45807574    -0.02680
C447        C  0.27880632  0.65106944  0.44184384    -0.02690
C448        C  0.28917775  0.64730152  0.39997888     0.07240
C449        C  0.24217600  0.61230584  0.38020765    -0.02880
Br450      Br  0.24416214  0.57871656  0.33353036    -0.01430
Br451      Br  0.13374801  0.54731174  0.36600583    -0.01500
Br452      Br  0.33368340  0.68590969  0.47915277    -0.01460
Br453      Br  0.22231798  0.66552864  0.00464583    -0.01440
C454        C  0.38016402  0.81718251  0.42621098    -0.02570
C455        C  0.43226603  0.84589276  0.43035672     0.07110
C456        C  0.45498850  0.82943169  0.40132243    -0.02680
C457        C  0.42853884  0.77932043  0.38295382    -0.02690
C458        C  0.37855110  0.74043481  0.39353757     0.07240
C459        C  0.35516269  0.76604231  0.41264788    -0.02880
Br460      Br  0.28752151  0.74184124  0.40490296    -0.01430
Br461      Br  0.35554642  0.85868208  0.40354924    -0.01500
Br462      Br  0.44678430  0.77784564  0.33014756    -0.01460
Br463      Br  0.01104023  0.88297282  0.37527842    -0.01440
C464        C  0.18193175  0.76112069  0.15704414    -0.02590
C465        C  0.15380006  0.77609795  0.18241095     0.07110
C466        C  0.10437205  0.73782181  0.19024059    -0.02680
C467        C  0.08282808  0.69616890  0.16490053    -0.02690
C468        C  0.10788369  0.69643223  0.12980966     0.07240
C469        C  0.15825912  0.73000541  0.12600229    -0.02880
Br470      Br  0.19515291  0.73991277  0.07684809    -0.01430
Br471      Br  0.25038004  0.77547874  0.16355563    -0.01500
Br472      Br  0.02651742  0.63614564  0.18205474    -0.01460
Br473      Br  0.07120818  0.73340381  0.23941393    -0.01440
C474        C  0.09829206  0.83448621  0.16829383    -0.02570
C475        C  0.14787069  0.85876232  0.18247862     0.07110
C476        C  0.17520393  0.91017417  0.17437786    -0.02680
C477        C  0.16004474  0.93124549  0.14396020    -0.02690
C478        C  0.11360554  0.90318246  0.12411809     0.07240
C479        C  0.08428752  0.85335422  0.13532977    -0.02880
Br480      Br  0.03485295  0.80602099  0.09954621    -0.01430
Br481      Br  0.05147019  0.82095878  0.20863870    -0.01500
Br482      Br  0.21210009  0.99172366  0.12380144    -0.01460
Br483      Br  0.23714645  0.95076823  0.20269057    -0.01440
C484        C  0.27782768  0.87808595  0.18787031    -0.02570
C485        C  0.22743073  0.85845640  0.17275335     0.07110
C486        C  0.22248624  0.86501664  0.13012007    -0.02680
C487        C  0.26293402  0.89773570  0.10823300    -0.02690
C488        C  0.31020779  0.90867071  0.12164492     0.07240
C489        C  0.31787647  0.89698798  0.16068699    -0.02880
Br490      Br  0.38263782  0.90586600  0.17652708    -0.01430
Br491      Br  0.29591347  0.87618313  0.24251852    -0.01500
Br492      Br  0.25317906  0.92484907  0.05810607    -0.01460
Br493      Br  0.16300896  0.83044328  0.09741141    -0.01440
C494        C  0.38753733  0.56883775  0.16356502    -0.02570
C495        C  0.42365568  0.58822113  0.13230286     0.07110
C496        C  0.43186797  0.63619494  0.11997581    -0.02680
C497        C  0.41675704  0.66510935  0.14361591    -0.02690
C498        C  0.37397752  0.64439697  0.16839489     0.07240
C499        C  0.35925035  0.59348531  0.17702363    -0.02880
Br500      Br  0.30756758  0.56153271  0.21482961    -0.01430
Br501      Br  0.37969442  0.51163896  0.19119512    -0.01500
Br502      Br  0.47207614  0.72198699  0.16193342    -0.01460
Br503      Br  0.96026058  0.66635727  0.06988854    -0.01440
C504        C  0.23770557  0.62437218  0.18774132    -0.02570
C505        C  0.28489117  0.64088891  0.16630685     0.07110
C506        C  0.27393431  0.62148794  0.12569375    -0.02680
C507        C  0.22372250  0.59587405  0.10832247    -0.02690
C508        C  0.17879581  0.58621186  0.12939420     0.07240
C509        C  0.18814567  0.60326199  0.16911685    -0.02880
Br510      Br  0.13137617  0.59720899  0.19901555    -0.01430
Br511      Br  0.23139321  0.61020657  0.24304695    -0.01500
Br512      Br  0.21859395  0.57042596  0.05447624    -0.01460
Br513      Br  0.32675973  0.63475789  0.08779981    -0.01440
C514        C  0.36010386  0.74842714  0.12663194    -0.02570
C515        C  0.37212357  0.73382198  0.16497008     0.07110
C516        C  0.41173253  0.77818664  0.18431285    -0.02680
C517        C  0.43561823  0.82818574  0.16715123    -0.02690
C518        C  0.42693002  0.83831963  0.12731486     0.07240
C519        C  0.39114539  0.79488748  0.10678875    -0.02880
Br520      Br  0.38109754  0.79604087  0.04956542    -0.01430
Br521      Br  0.29345093  0.72081827  0.10513397    -0.01500
Br522      Br  0.98360750  0.88405214  0.19785670    -0.01460
Br523      Br  0.43675395  0.77508586  0.23565978    -0.01440
C524        C  0.37117885  0.65586976  0.26111197    -0.02570
C525        C  0.34739341  0.67665412  0.23492929     0.07110
C526        C  0.32732633  0.70149202  0.25894802    -0.02680
C527        C  0.32249779  0.69736757  0.30235256    -0.02690
C528        C  0.34430949  0.67444356  0.32825170     0.07240
C529        C  0.36037053  0.64640685  0.30330904    -0.02880
Br530      Br  0.35375949  0.58299354  0.31971211    -0.01430
Br531      Br  0.42854479  0.64863392  0.24551357    -0.01500
Br532      Br  0.26416076  0.69981666  0.31891989    -0.01460
Br533      Br  0.30723928  0.74469864  0.23293740    -0.01440
C534        C  0.10134712  0.69522727  0.41336671    -0.02570
C535        C  0.09532938  0.70237172  0.45337230     0.07110
C536        C  0.10303438  0.74718189  0.46837738    -0.02680
C537        C  0.12940826  0.78852018  0.44544581    -0.02690
C538        C  0.13607280  0.78333904  0.40268243     0.07240
C539        C  0.11565852  0.73442722  0.38688611    -0.02880
Br540      Br  0.09865660  0.71480170  0.33241031    -0.01430
Br541      Br  0.09836473  0.63474078  0.39611059    -0.01500
Br542      Br  0.16148557  0.84945536  0.47717005    -0.01460
Br543      Br  0.08652101  0.75284445  0.02335786    -0.01440
C544        C  0.15937429  0.91125617  0.39108741    -0.02570
C545        C  0.13459143  0.85978110  0.38785194     0.07110
C546        C  0.08450414  0.83517233  0.40425723    -0.02680
C547        C  0.07329517  0.85549655  0.43668108    -0.02690
C548        C  0.10541959  0.90551636  0.44552769     0.07240
C549        C  0.14700214  0.93327216  0.42163981    -0.02880
Br550      Br  0.19246731  0.49937516  0.43365397    -0.01430
Br551      Br  0.19288584  0.95289706  0.34713853    -0.01500
Br552      Br  0.02177566  0.80958832  0.47385417    -0.01460
Br553      Br  0.03406986  0.76848326  0.39353693    -0.01440
C554        C  0.23457304  0.83271977  0.42982394    -0.02570
C555        C  0.22047858  0.85564865  0.39738219     0.07110
C556        C  0.26083230  0.90211905  0.38507554    -0.02680
C557        C  0.30156944  0.92920062  0.41147460    -0.02690
C558        C  0.30277165  0.90997789  0.44933152     0.07240
C559        C  0.26853785  0.86173680  0.45864081    -0.02880
Br560      Br  0.26907425  0.83390975  0.51137766    -0.01430
Br561      Br  0.21090503  0.76355237  0.44156020    -0.01500
Br562      Br  0.36094809  0.48612220  0.39321994    -0.01460
Br563      Br  0.27439548  0.91966200  0.32957528    -0.01440
C564        C  0.19165447  0.80293110  0.26980928    -0.02570
C565        C  0.17811010  0.83342014  0.24509428     0.07110
C566        C  0.15618648  0.85836615  0.26769691    -0.02680
C567        C  0.13938677  0.84233745  0.30593822    -0.02690
C568        C  0.16552820  0.82588411  0.33180270     0.07240
C569        C  0.19487622  0.80846254  0.31181338    -0.02880
Br570      Br  0.23770362  0.78930933  0.33989482    -0.01430
Br571      Br  0.19830466  0.74722506  0.25180017    -0.01500
Br572      Br  0.07066029  0.82645131  0.31194166    -0.01460
Br573      Br  0.14236644  0.91336322  0.25609140    -0.01440
C574        C  0.16475002  0.83105355  0.87843187    -0.03210
C575        C  0.34453999  0.67471759  0.68428498    -0.03210
C576        C  0.17703487  0.83116592  0.69747459    -0.03210
C577        C  0.34834083  0.67856894  0.87914131    -0.03210
O578        O  0.05072422  0.90379926  0.99151071    -0.88900
C579        C  0.34884022  0.92783816  0.59200183     1.11140
O580        O  0.04123706  0.97800217  0.53448279    -1.36710
O581        O  0.36489984  0.90559876  0.98703592    -0.90380
O582        O  0.12578018  0.96791890  0.99338100    -0.91050
O583        O  0.08329587  0.54500134  0.94793341    -0.79870
O584        O  0.45349283  0.89228772  0.49346514    -1.01960
C585        C  0.45436666  0.56711580  0.96235904     1.21180
O586        O  0.03832607  0.56372552  0.53613093    -1.36850
Mn587      Mn  0.01008290  0.50498648  0.58154421     1.82050
O588        O  0.47862293  0.54565137  0.94832708    -0.78950
O589        O  0.35711977  0.97388554  0.99084210    -0.88340
C590        C  0.44907761  0.56012248  0.60983231     1.12270
C591        C  0.34558858  0.93242975  0.97621649     1.06990
O592        O  0.07999289  0.53824245  0.62307510    -0.79890
O593        O  0.45198363  0.97853406  0.53366898    -1.33580
O594        O  0.12381951  0.56076174  0.57234930    -0.99100
C595        C  0.08308912  0.66478218  0.98172392     1.05710
Mn596      Mn  0.40610048  0.51501948  0.53509577     1.48570
O597        O  0.11598614  0.65344398  0.99350728    -0.88290
Mn598      Mn  0.12210744  0.51290767  0.53545594     1.49560
O599        O  0.05153993  0.89886127  0.57845660    -0.92170
C600        C  0.45706444  0.89625850  0.95685140     1.18900
C601        C  0.09554669  0.92431927  0.59197883     1.10960
Mn602      Mn  0.01236565  0.50869683  0.98818886     1.80970
O603        O  0.44937332  0.56167623  0.57378656    -0.97320
Mn604      Mn  0.00487601  0.89975822  0.53350897     1.49260
C605        C  0.09389881  0.92753334  0.97878214     1.07480
Mn606      Mn  0.99916817  0.60609614  0.53869172     1.49930
C607        C  0.08581580  0.66050241  0.59824303     1.10380
O608        O  0.13020513  0.56626671  0.99794945    -1.03130
O609        O  0.36151910  0.97064219  0.57918275    -0.92790
C610        C  0.12914361  0.56815754  0.96159047     1.21670
O611        O  0.45102621  0.56524343  0.99863979    -1.03510
O612        O  0.36224772  0.89861754  0.57677398    -0.90910
O613        O  0.04281859  0.64940318  0.58531711    -0.90520
O614        O  0.12439079  0.96691790  0.57915625    -0.90540
Mn615      Mn  0.40903496  0.90041658  0.53159646     1.47860
O616        O  0.47242143  0.53702382  0.62367575    -0.79020
C617        C  0.12477914  0.56034444  0.60832748     1.14720
O618        O  0.48077550  0.94200688  0.94506880    -0.77750
O619        O  0.47699139  0.93519130  0.62093035    -0.77360
Mn620      Mn  0.11787388  0.60636054  0.53649946     1.51060
O621        O  0.04126865  0.65073416  0.99685212    -0.89720
O622        O  0.45335594  0.89218502  0.56963503    -0.97240
O623        O  0.11385896  0.64593746  0.58265393    -0.92260
C624        C  0.45378608  0.89125135  0.60579588     1.12510
C625        C  0.39220885  0.60414953  0.95556177    -0.02570
C626        C  0.43102481  0.59641389  0.93896763     0.07110
C627        C  0.44494929  0.61771395  0.90035821    -0.02680
C628        C  0.42691183  0.65057834  0.88342879    -0.02690
C629        C  0.38168713  0.65158031  0.89796101     0.07240
C630        C  0.36243733  0.61765920  0.93043702    -0.02880
Br631      Br  0.30594817  0.55789006  0.91703201    -0.01430
Br632      Br  0.36395339  0.57917268  0.00714010    -0.01500
Br633      Br  0.46340530  0.68391753  0.83689131    -0.01460
Br634      Br  0.98003305  0.59383412  0.86712332    -0.01440
C635        C  0.19161753  0.59151276  0.89748077    -0.02570
C636        C  0.18243003  0.59841548  0.93803314     0.07110
C637        C  0.22823428  0.63254538  0.95807144    -0.02680
C638        C  0.27882388  0.65126382  0.94183839    -0.02690
C639        C  0.28920583  0.64743432  0.89998839     0.07240
C640        C  0.24220686  0.61244132  0.88021565    -0.02880
Br641      Br  0.24418489  0.57868794  0.83363426    -0.01430
Br642      Br  0.13377531  0.54763452  0.86591477    -0.01500
Br643      Br  0.33369316  0.68611468  0.97914965    -0.01460
Br644      Br  0.22232168  0.66546168  0.50460071    -0.01440
C645        C  0.38026234  0.81730084  0.92614563    -0.02570
C646        C  0.43235953  0.84595284  0.93034760     0.07110
C647        C  0.45509721  0.82946308  0.90134736    -0.02680
C648        C  0.42862859  0.77935455  0.88297643    -0.02690
C649        C  0.37861922  0.74050799  0.89353646     0.07240
C650        C  0.35524509  0.76616235  0.91258299    -0.02880
Br651      Br  0.28766564  0.74203834  0.90467562    -0.01430
Br652      Br  0.35574058  0.85887569  0.90345877    -0.01500
Br653      Br  0.44682239  0.77787433  0.83015751    -0.01460
Br654      Br  0.01116334  0.88298373  0.87529939    -0.01440
C655        C  0.18190282  0.76116295  0.65699158    -0.02590
C656        C  0.15376003  0.77610677  0.68237470     0.07110
C657        C  0.10434322  0.73781266  0.69021237    -0.02680
C658        C  0.08280771  0.69616784  0.66486771    -0.02690
C659        C  0.10786025  0.69644923  0.62977106     0.07240
C660        C  0.15823092  0.73003803  0.62595412    -0.02880
Br661      Br  0.19512114  0.73993209  0.57679952    -0.01430
Br662      Br  0.25036036  0.77554635  0.66350406    -0.01500
Br663      Br  0.02650302  0.63613541  0.68201693    -0.01460
Br664      Br  0.07118310  0.73336374  0.73939606    -0.01440
C665        C  0.09820703  0.83442864  0.66828164    -0.02570
C666        C  0.14777577  0.85872569  0.68248517     0.07110
C667        C  0.17507729  0.91014626  0.67442896    -0.02680
C668        C  0.15991747  0.93122331  0.64401902    -0.02690
C669        C  0.11350194  0.90314823  0.62414616     0.07240
C670        C  0.08420566  0.85330483  0.63532343    -0.02880
Br671      Br  0.03481867  0.80597958  0.59950569    -0.01430
Br672      Br  0.05136135  0.82086642  0.70861430    -0.01500
Br673      Br  0.21196366  0.99173283  0.62390946    -0.01460
Br674      Br  0.23698516  0.95074016  0.70278828    -0.01440
C675        C  0.27776674  0.87812849  0.68785568    -0.02570
C676        C  0.22736932  0.85849680  0.67273979     0.07110
C677        C  0.22243057  0.86509677  0.63011333    -0.02680
C678        C  0.26287973  0.89785195  0.60824532    -0.02690
C679        C  0.31014878  0.90873741  0.62163679     0.07240
C680        C  0.31781311  0.89702682  0.66067038    -0.02880
Br681      Br  0.38255553  0.90583537  0.67649130    -0.01430
Br682      Br  0.29585870  0.87619509  0.74249455    -0.01500
Br683      Br  0.25312479  0.92505439  0.55816664    -0.01460
Br684      Br  0.16298303  0.83049875  0.59737794    -0.01440
C685        C  0.38752942  0.56882081  0.66357907    -0.02570
C686        C  0.42361358  0.58819724  0.63229519     0.07110
C687        C  0.43179360  0.63615285  0.61995265    -0.02680
C688        C  0.41668721  0.66506880  0.64359572    -0.02690
C689        C  0.37393078  0.64435746  0.66839913     0.07240
C690        C  0.35923276  0.59345418  0.67704202    -0.02880
Br691      Br  0.30758893  0.56148830  0.71487024    -0.01430
Br692      Br  0.37974919  0.51165608  0.69123260    -0.01500
Br693      Br  0.47200318  0.72195515  0.66189118    -0.01460
Br694      Br  0.96013281  0.66626889  0.56983887    -0.01440
C695        C  0.23766069  0.62429952  0.68776889    -0.02570
C696        C  0.28484025  0.64083912  0.66632161     0.07110
C697        C  0.27387580  0.62145456  0.62570436    -0.02680
C698        C  0.22366172  0.59585709  0.60833635    -0.02690
C699        C  0.17873950  0.58619684  0.62941482     0.07240
C700        C  0.18809797  0.60321411  0.66914883    -0.02880
Br701      Br  0.13133910  0.59713162  0.69907583    -0.01430
Br702      Br  0.23136772  0.61003028  0.74306385    -0.01500
Br703      Br  0.21851977  0.57037892  0.55450018    -0.01460
Br704      Br  0.32669105  0.63471442  0.58780265    -0.01440
C705        C  0.36003762  0.74838566  0.62663934    -0.02570
C706        C  0.37206436  0.73378109  0.66497557     0.07110
C707        C  0.41166609  0.77815179  0.68431858    -0.02680
C708        C  0.43554822  0.82815130  0.66715550    -0.02690
C709        C  0.42685706  0.83828488  0.62731963     0.07240
C710        C  0.39107145  0.79484950  0.60679530    -0.02880
Br711      Br  0.38100476  0.79600397  0.54957378    -0.01430
Br712      Br  0.29337761  0.72077607  0.60515492    -0.01500
Br713      Br  0.98353454  0.88402054  0.69785974    -0.01460
Br714      Br  0.43667347  0.77506232  0.73567320    -0.01440
C715        C  0.37114312  0.65585924  0.76113119    -0.02570
C716        C  0.34734247  0.67661914  0.73493714     0.07110
C717        C  0.32725118  0.70144471  0.75894142    -0.02680
C718        C  0.32242928  0.69734539  0.80234721    -0.02690
C719        C  0.34429743  0.67447978  0.82826361     0.07240
C720        C  0.36035209  0.64642690  0.80333558    -0.02880
Br721      Br  0.35371933  0.58301400  0.81978742    -0.01430
Br722      Br  0.42851143  0.64863126  0.74553057    -0.01500
Br723      Br  0.26396753  0.69963035  0.81883781    -0.01460
Br724      Br  0.30711581  0.74459997  0.73289965    -0.01440
C725        C  0.10125772  0.69517152  0.91337680    -0.02570
C726        C  0.09532005  0.70235894  0.95338886     0.07110
C727        C  0.10311283  0.74719224  0.96839478    -0.02680
C728        C  0.12949308  0.78850480  0.94544436    -0.02690
C729        C  0.13609585  0.78328469  0.90267403     0.07240
C730        C  0.11562388  0.73436647  0.88688482    -0.02880
Br731      Br  0.09867312  0.71474778  0.83240008    -0.01430
Br732      Br  0.09807655  0.63460624  0.89612756    -0.01500
Br733      Br  0.16161761  0.84947367  0.97712958    -0.01460
Br734      Br  0.08637252  0.75279266  0.52333125    -0.01440
C735        C  0.15930271  0.91116654  0.89099662    -0.02570
C736        C  0.13457554  0.85968447  0.88785114     0.07110
C737        C  0.08450238  0.83507591  0.90429882    -0.02680
C738        C  0.07333343  0.85543157  0.93672449    -0.02690
C739        C  0.10543472  0.90547473  0.94549926     0.07240
C740        C  0.14691123  0.93321716  0.92151210    -0.02880
Br741      Br  0.19213124  0.49942837  0.93327653    -0.01430
Br742      Br  0.19292825  0.95275042  0.84703937    -0.01500
Br743      Br  0.02186262  0.80957739  0.97395199    -0.01460
Br744      Br  0.03404728  0.76837283  0.89364374    -0.01440
C745        C  0.23461847  0.83258488  0.92976735    -0.02570
C746        C  0.22049130  0.85555478  0.89736870     0.07110
C747        C  0.26080406  0.90206517  0.88511253    -0.02680
C748        C  0.30147910  0.92917623  0.91155046    -0.02690
C749        C  0.30275141  0.90987900  0.94935945     0.07240
C750        C  0.26860207  0.86157525  0.95859500    -0.02880
Br751      Br  0.26919508  0.83367178  0.01128580    -0.01430
Br752      Br  0.21088521  0.76338621  0.94147043    -0.01500
Br753      Br  0.36070525  0.48631239  0.89338747    -0.01460
Br754      Br  0.27449781  0.91957600  0.82961877    -0.01440
C755        C  0.19162013  0.80290212  0.76976512    -0.02570
C756        C  0.17804402  0.83338516  0.74507474     0.07110
C757        C  0.15609521  0.85829092  0.76770145    -0.02680
C758        C  0.13933527  0.84224113  0.80594625    -0.02690
C759        C  0.16552474  0.82582226  0.83178617     0.07240
C760        C  0.19487601  0.80843091  0.81176687    -0.02880
Br761      Br  0.23777378  0.78933441  0.83978888    -0.01430
Br762      Br  0.19824008  0.74718597  0.75173582    -0.01500
Br763      Br  0.07057424  0.82618537  0.81196721    -0.01460
Br764      Br  0.14213282  0.91320789  0.75612435    -0.01440
C765        C  0.66474077  0.33112727  0.37844548    -0.03210
C766        C  0.84459043  0.17476115  0.18427726    -0.03210
C767        C  0.67709800  0.33117208  0.19749244    -0.03210
C768        C  0.84831361  0.17849759  0.37912722    -0.03210
O769        O  0.55064641  0.40377905  0.49151014    -0.88900
C770        C  0.84890664  0.42780437  0.09201919     1.11140
O771        O  0.54130221  0.47803468  0.03446907    -1.36710
O772        O  0.86485771  0.40561837  0.48702665    -0.90380
O773        O  0.62570270  0.46788809  0.49344323    -0.91050
O774        O  0.58326193  0.04492881  0.44794067    -0.79870
O775        O  0.95357963  0.39232711  0.99345870    -1.01960
C776        C  0.95433937  0.06708926  0.46234567     1.21180
O777        O  0.53836356  0.06374518  0.03613500    -1.36850
Mn778      Mn  0.51013778  0.00500823  0.08154076     1.82050
O779        O  0.97859107  0.04561450  0.44832421    -0.78950
O780        O  0.85713533  0.47393750  0.49081558    -0.88340
C781        C  0.94911277  0.06013260  0.10984134     1.12270
C782        C  0.84559930  0.43248835  0.47618536     1.06990
O783        O  0.58005361  0.03826076  0.12305946    -0.79890
O784        O  0.95203040  0.47854545  0.03367031    -1.33580
O785        O  0.62387852  0.06077232  0.07233016    -0.99100
C786        C  0.58308922  0.16477619  0.48169977     1.05710
Mn787      Mn  0.90612123  0.01500048  0.03511110     1.48570
O788        O  0.61597669  0.15342096  0.49347823    -0.88290
Mn789      Mn  0.62217711  0.01293714  0.03541668     1.49560
O790        O  0.55161979  0.39890369  0.07845630    -0.92170
C791        C  0.95697587  0.39620943  0.45685763     1.18900
C792        C  0.59564201  0.42435102  0.09195090     1.10960
Mn793      Mn  0.51232071  0.00866146  0.48819128     1.80970
O794        O  0.94939707  0.06167273  0.07379617    -0.97320
Mn795      Mn  0.50495692  0.39979347  0.03350510     1.49260
C796        C  0.59383681  0.42752417  0.47881362     1.07480
Mn797      Mn  0.49918837  0.10609819  0.03870984     1.49930
C798        C  0.58584016  0.16048834  0.09827581     1.10380
O799        O  0.63016049  0.06621496  0.49796431    -1.03130
O800        O  0.86156927  0.47061169  0.07921218    -0.92790
C801        C  0.62910946  0.06806851  0.46160314     1.21670
O802        O  0.95100480  0.06524661  0.49862634    -1.03510
O803        O  0.86231582  0.39859650  0.07677252    -0.90910
O804        O  0.54284811  0.14939714  0.08534208    -0.90520
O805        O  0.62449078  0.46693648  0.07910235    -0.90540
Mn806      Mn  0.90910695  0.40042699  0.03159403     1.47860
O807        O  0.97247374  0.03704712  0.12368174    -0.79020
C808        C  0.62483826  0.06035017  0.10830790     1.14720
O809        O  0.98071028  0.44195764  0.44507443    -0.77750
O810        O  0.97705873  0.43522067  0.12092894    -0.77360
Mn811      Mn  0.61790932  0.10638095  0.03650791     1.51060
O812        O  0.54126510  0.15072332  0.49682688    -0.89720
O813        O  0.95343973  0.39222071  0.06963098    -0.97240
O814        O  0.61388445  0.14592520  0.08268548    -0.92260
C815        C  0.95386288  0.39128351  0.10579215     1.12510
C816        C  0.89207768  0.10399358  0.45547630    -0.02570
C817        C  0.93097494  0.09634631  0.43893421     0.07110
C818        C  0.94498510  0.11772407  0.40035744    -0.02680
C819        C  0.92692815  0.15056928  0.38341806    -0.02690
C820        C  0.88166785  0.15151961  0.39792573     0.07240
C821        C  0.86232941  0.11747701  0.43030680    -0.02880
Br822      Br  0.80608916  0.05765853  0.41656054    -0.01430
Br823      Br  0.86371897  0.07895478  0.50700810    -0.01500
Br824      Br  0.96341628  0.18391980  0.33688423    -0.01460
Br825      Br  0.48025915  0.09399812  0.36718555    -0.01440
C826        C  0.69159488  0.09129496  0.39751016    -0.02570
C827        C  0.68240876  0.09825467  0.43804847     0.07110
C828        C  0.72821962  0.13238755  0.45807584    -0.02680
C829        C  0.77880642  0.15106927  0.44184395    -0.02690
C830        C  0.78917781  0.14730139  0.39997897     0.07240
C831        C  0.74217602  0.11230578  0.38020772    -0.02880
Br832      Br  0.74416204  0.07871666  0.33353029    -0.01430
Br833      Br  0.63374802  0.04731166  0.36600599    -0.01500
Br834      Br  0.83368352  0.18590952  0.47915286    -0.01460
Br835      Br  0.72231706  0.16552928  0.00464651    -0.01440
C836        C  0.88016384  0.31718236  0.42621107    -0.02570
C837        C  0.93226584  0.34589267  0.43035678     0.07110
C838        C  0.95498836  0.32943162  0.40132252    -0.02680
C839        C  0.92853876  0.27932035  0.38295393    -0.02690
C840        C  0.87855103  0.24043471  0.39353765     0.07240
C841        C  0.85516256  0.26604216  0.41264798    -0.02880
Br842      Br  0.78752130  0.24184097  0.40490328    -0.01430
Br843      Br  0.85554607  0.35868184  0.40354946    -0.01500
Br844      Br  0.94678439  0.27784551  0.33014775    -0.01460
Br845      Br  0.51104009  0.38297279  0.37527838    -0.01440
C846        C  0.68193165  0.26112054  0.15704430    -0.02590
C847        C  0.65379998  0.27609784  0.18241109     0.07110
C848        C  0.60437197  0.23782170  0.19024073    -0.02680
C849        C  0.58282800  0.19616874  0.16490071    -0.02690
C850        C  0.60788360  0.19643201  0.12980986     0.07240
C851        C  0.65825901  0.23000522  0.12600247    -0.02880
Br852      Br  0.69515271  0.23991259  0.07684826    -0.01430
Br853      Br  0.75037993  0.27547860  0.16355580    -0.01500
Br854      Br  0.52651739  0.13614546  0.18205496    -0.01460
Br855      Br  0.57120810  0.23340374  0.23941406    -0.01440
C856        C  0.59829217  0.33448630  0.16829400    -0.02570
C857        C  0.64787080  0.35876234  0.18247877     0.07110
C858        C  0.67520413  0.41017419  0.17437801    -0.02680
C859        C  0.66004500  0.43124556  0.14396034    -0.02690
C860        C  0.61360576  0.40318258  0.12411829     0.07240
C861        C  0.58428767  0.35335435  0.13532996    -0.02880
Br862      Br  0.53485301  0.30602113  0.09954644    -0.01430
Br863      Br  0.55147025  0.32095877  0.20863883    -0.01500
Br864      Br  0.71210045  0.49172363  0.12380147    -0.01460
Br865      Br  0.73714664  0.45076820  0.20269074    -0.01440
C866        C  0.77782770  0.37808584  0.18787046    -0.02570
C867        C  0.72743075  0.35845628  0.17275349     0.07110
C868        C  0.72248625  0.36501646  0.13012020    -0.02680
C869        C  0.76293403  0.39773541  0.10823306    -0.02690
C870        C  0.81020782  0.40867061  0.12164507     0.07240
C871        C  0.81787650  0.39698794  0.16068715    -0.02880
Br872      Br  0.88263792  0.40586615  0.17652729    -0.01430
Br873      Br  0.79591347  0.37618296  0.24251866    -0.01500
Br874      Br  0.75317906  0.42484831  0.05810589    -0.01460
Br875      Br  0.66300890  0.33044315  0.09741164    -0.01440
C876        C  0.88753733  0.06883785  0.16356486    -0.02570
C877        C  0.92365609  0.08822153  0.13230299     0.07110
C878        C  0.93186871  0.13619559  0.11997629    -0.02680
C879        C  0.91675748  0.16510973  0.14361642    -0.02690
C880        C  0.87397764  0.14439710  0.16839500     0.07240
C881        C  0.85925030  0.09348535  0.17702347    -0.02880
Br882      Br  0.80756733  0.06153263  0.21482928    -0.01430
Br883      Br  0.87969412  0.01163884  0.19119473    -0.01500
Br884      Br  0.97207650  0.22198682  0.16193489    -0.01460
Br885      Br  0.46026077  0.16635736  0.06988855    -0.01440
C886        C  0.73770554  0.12437196  0.18774114    -0.02570
C887        C  0.78489126  0.14088893  0.16630679     0.07110
C888        C  0.77393461  0.12148817  0.12569361    -0.02680
C889        C  0.72372288  0.09587422  0.10832217    -0.02690
C890        C  0.67879603  0.08621163  0.12939384     0.07240
C891        C  0.68814568  0.10326156  0.16911656    -0.02880
Br892      Br  0.63137592  0.09720812  0.19901516    -0.01430
Br893      Br  0.73139313  0.11020682  0.24304685    -0.01500
Br894      Br  0.71859461  0.07042646  0.05447584    -0.01460
Br895      Br  0.82676031  0.13475859  0.08779985    -0.01440
C896        C  0.86010397  0.24842726  0.12663211    -0.02570
C897        C  0.87212368  0.23382204  0.16497024     0.07110
C898        C  0.91173261  0.27818669  0.18431305    -0.02680
C899        C  0.93561835  0.32818579  0.16715145    -0.02690
C900        C  0.92693019  0.33831971  0.12731509     0.07240
C901        C  0.89114553  0.29488760  0.10678896    -0.02880
Br902      Br  0.88109763  0.29604110  0.04956565    -0.01430
Br903      Br  0.79345103  0.22081851  0.10513418    -0.01500
Br904      Br  0.48360749  0.38405202  0.19785684    -0.01460
Br905      Br  0.93675384  0.27508593  0.23566006    -0.01440
C906        C  0.87117869  0.15586948  0.26111207    -0.02570
C907        C  0.84739340  0.17665402  0.23492939     0.07110
C908        C  0.82732638  0.20149197  0.25894812    -0.02680
C909        C  0.82249788  0.19736755  0.30235267    -0.02690
C910        C  0.84430951  0.17444347  0.32825179     0.07240
C911        C  0.86037039  0.14640663  0.30330915    -0.02880
Br912      Br  0.85375928  0.08299331  0.31971228    -0.01430
Br913      Br  0.92854435  0.14863306  0.24551378    -0.01500
Br914      Br  0.76416101  0.19981686  0.31892006    -0.01460
Br915      Br  0.80723929  0.24469857  0.23293750    -0.01440
C916        C  0.60134722  0.19522728  0.41336679    -0.02570
C917        C  0.59532944  0.20237171  0.45337237     0.07110
C918        C  0.60303432  0.24718185  0.46837744    -0.02680
C919        C  0.62940815  0.28852015  0.44544589    -0.02690
C920        C  0.63607275  0.28333903  0.40268252     0.07240
C921        C  0.61565855  0.23442721  0.38688619    -0.02880
Br922      Br  0.59865654  0.21480166  0.33241041    -0.01430
Br923      Br  0.59836494  0.13474084  0.39611066    -0.01500
Br924      Br  0.66148533  0.34945534  0.47717013    -0.01460
Br925      Br  0.58652185  0.25284514  0.02335808    -0.01440
C926        C  0.65937413  0.41125612  0.39108737    -0.02570
C927        C  0.63459133  0.35978105  0.38785198     0.07110
C928        C  0.58450403  0.33517227  0.40425726    -0.02680
C929        C  0.57329502  0.35549652  0.43668106    -0.02690
C930        C  0.60541940  0.40551635  0.44552761     0.07240
C931        C  0.64700192  0.43327214  0.42163971    -0.02880
Br932      Br  0.69246769  0.99937523  0.43365397    -0.01430
Br933      Br  0.69288589  0.45289699  0.34713853    -0.01500
Br934      Br  0.52177552  0.30958834  0.47385418    -0.01460
Br935      Br  0.53406979  0.26848318  0.39353700    -0.01440
C936        C  0.73457296  0.33271991  0.42982409    -0.02570
C937        C  0.72047850  0.35564870  0.39738227     0.07110
C938        C  0.76083220  0.40211908  0.38507559    -0.02680
C939        C  0.80156932  0.42920072  0.41147465    -0.02690
C940        C  0.80277155  0.40997806  0.44933158     0.07240
C941        C  0.76853772  0.36173700  0.45864094    -0.02880
Br942      Br  0.76907409  0.33391008  0.51137785    -0.01430
Br943      Br  0.71090508  0.26355256  0.44156041    -0.01500
Br944      Br  0.86094834  0.98612208  0.39321988    -0.01460
Br945      Br  0.77439548  0.41966187  0.32957531    -0.01440
C946        C  0.69165445  0.30293102  0.26980942    -0.02570
C947        C  0.67811010  0.33342007  0.24509441     0.07110
C948        C  0.65618650  0.35836611  0.26769701    -0.02680
C949        C  0.63938673  0.34233739  0.30593830    -0.02690
C950        C  0.66552814  0.32588406  0.33180280     0.07240
C951        C  0.69487617  0.30846246  0.31181352    -0.02880
Br952      Br  0.73770349  0.28930920  0.33989503    -0.01430
Br953      Br  0.69830462  0.24722496  0.25180034    -0.01500
Br954      Br  0.57066024  0.32645125  0.31194170    -0.01460
Br955      Br  0.64236651  0.41336321  0.25609149    -0.01440
C956        C  0.66475019  0.33105370  0.87843178    -0.03210
C957        C  0.84454007  0.17471730  0.68428542    -0.03210
C958        C  0.67703458  0.33116615  0.69747444    -0.03210
C959        C  0.84834085  0.17857003  0.87914181    -0.03210
O960        O  0.55072464  0.40379927  0.99151103    -0.88900
C961        C  0.84884006  0.42783828  0.59200180     1.11140
O962        O  0.54123695  0.47800222  0.53448269    -1.36710
O963        O  0.86489982  0.40559855  0.98703628    -0.90380
O964        O  0.62578047  0.46791906  0.99338122    -0.91050
O965        O  0.58329561  0.04500194  0.94793297    -0.79870
O966        O  0.95349258  0.39228761  0.49346519    -1.01960
C967        C  0.95436727  0.06711668  0.96235928     1.21180
O968        O  0.53832618  0.06372557  0.53613098    -1.36850
Mn969      Mn  0.51008304  0.00498656  0.58154423     1.82050
O970        O  0.97862322  0.04565208  0.94832704    -0.78950
O971        O  0.85711978  0.47388535  0.99084206    -0.88340
C972        C  0.94907774  0.06012246  0.60983242     1.12270
C973        C  0.84558855  0.43242944  0.97621666     1.06990
O974        O  0.57999300  0.03824248  0.62307520    -0.79890
O975        O  0.95198350  0.47853402  0.53366898    -1.33580
O976        O  0.62381977  0.06076185  0.57234946    -0.99100
C977        C  0.58308896  0.16478260  0.98172409     1.05710
Mn978      Mn  0.90610055  0.01501941  0.53509583     1.48570
O979        O  0.61598599  0.15344452  0.99350766    -0.88290
Mn980      Mn  0.62210769  0.01290783  0.53545599     1.49560
O981        O  0.55153980  0.39886136  0.57845646    -0.92170
C982        C  0.95706468  0.39625895  0.95685168     1.18900
C983        C  0.59554653  0.42431938  0.59197871     1.10960
Mn984      Mn  0.51236548  0.00869676  0.98818854     1.80970
O985        O  0.94937335  0.06167621  0.57378666    -0.97320
Mn986      Mn  0.50487586  0.39975827  0.53350887     1.49260
C987        C  0.59389920  0.42753343  0.97878243     1.07480
Mn988      Mn  0.49916818  0.10609610  0.53869171     1.49930
C989        C  0.58581576  0.16050244  0.59824305     1.10380
O990        O  0.63020490  0.06626719  0.99794896    -1.03130
O991        O  0.86151901  0.47064231  0.57918270    -0.92790
C992        C  0.62914333  0.06815863  0.96159003     1.21670
O993        O  0.95102691  0.06524389  0.99864001    -1.03510
O994        O  0.86224753  0.39861761  0.57677402    -0.90910
O995        O  0.54281860  0.14940323  0.58531704    -0.90520
O996        O  0.62439066  0.46691800  0.57915614    -0.90540
Mn997      Mn  0.90903474  0.40041654  0.53159652     1.47860
O998        O  0.97242157  0.03702378  0.62367582    -0.79020
C999        C  0.62477931  0.06034444  0.60832766     1.14720
O1000       O  0.98077574  0.44200726  0.94506909    -0.77750
O1001       O  0.97699121  0.43519117  0.62093038    -0.77360
Mn1002     Mn  0.61787400  0.10636062  0.53649961     1.51060
O1003       O  0.54126834  0.15073437  0.99685202    -0.89720
O1004       O  0.95335563  0.39218477  0.56963511    -0.97240
O1005       O  0.61385896  0.14593744  0.58265409    -0.92260
C1006       C  0.95378583  0.39125116  0.60579598     1.12510
C1007       C  0.89221116  0.10415246  0.95556349    -0.02570
C1008       C  0.93102576  0.09641545  0.93896837     0.07110
C1009       C  0.94494897  0.11771453  0.90035857    -0.02680
C1010       C  0.92691152  0.15057901  0.88342936    -0.02690
C1011       C  0.88168719  0.15158143  0.89796193     0.07240
C1012       C  0.86243910  0.11766245  0.93043961    -0.02880
Br1013     Br  0.80594511  0.05789423  0.91704130    -0.01430
Br1014     Br  0.86395806  0.07917730  0.00714289    -0.01500
Br1015     Br  0.96340498  0.18391827  0.83689196    -0.01460
Br1016     Br  0.48003147  0.09383291  0.86712270    -0.01440
C1017       C  0.69161737  0.09151622  0.89748015    -0.02570
C1018       C  0.68242968  0.09841775  0.93803278     0.07110
C1019       C  0.72823377  0.13254742  0.95807142    -0.02680
C1020       C  0.77882350  0.15126642  0.94183848    -0.02690
C1021       C  0.78920579  0.14743627  0.89998868     0.07240
C1022       C  0.74220691  0.11244354  0.88021574    -0.02880
Br1023     Br  0.74418503  0.07868769  0.83363591    -0.01430
Br1024     Br  0.63377534  0.04763993  0.86591292    -0.01500
Br1025     Br  0.83369249  0.18611748  0.97914993    -0.01460
Br1026     Br  0.72232186  0.16546172  0.50460076    -0.01440
C1027       C  0.88026281  0.31730219  0.92614519    -0.02570
C1028       C  0.93235991  0.34595349  0.93034787     0.07110
C1029       C  0.95509786  0.32946367  0.90134793    -0.02680
C1030       C  0.92862915  0.27935526  0.88297686    -0.02690
C1031       C  0.87861955  0.24050907  0.89353664     0.07240
C1032       C  0.85524543  0.26616380  0.91258245    -0.02880
Br1033     Br  0.78766663  0.24204075  0.90467310    -0.01430
Br1034     Br  0.85574238  0.35887787  0.90345773    -0.01500
Br1035     Br  0.94682265  0.27787536  0.83015776    -0.01460
Br1036     Br  0.51116350  0.38298350  0.87529955    -0.01440
C1037       C  0.68190264  0.26116329  0.65699138    -0.02590
C1038       C  0.65375979  0.27610703  0.68237451     0.07110
C1039       C  0.60434302  0.23781283  0.69021224    -0.02680
C1040       C  0.58280760  0.19616796  0.66486764    -0.02690
C1041       C  0.60786015  0.19644935  0.62977100     0.07240
C1042       C  0.65823076  0.23003826  0.62595398    -0.02880
Br1043     Br  0.69512101  0.23993217  0.57679941    -0.01430
Br1044     Br  0.75036019  0.27554675  0.66350391    -0.01500
Br1045     Br  0.52650308  0.13613545  0.68201696    -0.01460
Br1046     Br  0.57118289  0.23336390  0.73939593    -0.01440
C1047       C  0.59820675  0.33442875  0.66828150    -0.02570
C1048       C  0.64777545  0.35872585  0.68248508     0.07110
C1049       C  0.67507691  0.41014643  0.67442898    -0.02680
C1050       C  0.65991716  0.43122348  0.64401901    -0.02690
C1051       C  0.61350171  0.40314835  0.62414606     0.07240
C1052       C  0.58420543  0.35330494  0.63532328    -0.02880
Br1053     Br  0.53481864  0.30597968  0.59950542    -0.01430
Br1054     Br  0.55136107  0.32086652  0.70861415    -0.01500
Br1055     Br  0.71196342  0.49173297  0.62390949    -0.01460
Br1056     Br  0.73698468  0.45074029  0.70278843    -0.01440
C1057       C  0.77776647  0.37812878  0.68785562    -0.02570
C1058       C  0.72736906  0.35849711  0.67273969     0.07110
C1059       C  0.72243039  0.36509716  0.63011324    -0.02680
C1060       C  0.76287959  0.39785234  0.60824528    -0.02690
C1061       C  0.81014860  0.40873764  0.62163675     0.07240
C1062       C  0.81781285  0.39702700  0.66067034    -0.02880
Br1063     Br  0.88255516  0.40583523  0.67649126    -0.01430
Br1064     Br  0.79585838  0.37619541  0.74249451    -0.01500
Br1065     Br  0.75312475  0.42505487  0.55816661    -0.01460
Br1066     Br  0.66298294  0.33049909  0.59737776    -0.01440
C1067       C  0.88752980  0.06882074  0.66357938    -0.02570
C1068       C  0.92361382  0.08819723  0.63229543     0.07110
C1069       C  0.93179385  0.13615289  0.61995304    -0.02680
C1070       C  0.91668748  0.16506877  0.64359625    -0.02690
C1071       C  0.87393103  0.14435730  0.66839964     0.07240
C1072       C  0.85923313  0.09345401  0.67704246    -0.02880
Br1073     Br  0.80758957  0.06148790  0.71487083    -0.01430
Br1074     Br  0.87974977  0.01165599  0.69123279    -0.01500
Br1075     Br  0.97200347  0.22195504  0.66189197    -0.01460
Br1076     Br  0.46013266  0.16626874  0.56983881    -0.01440
C1077       C  0.73766080  0.12429870  0.68776940    -0.02570
C1078       C  0.78484036  0.14083869  0.66632204     0.07110
C1079       C  0.77387596  0.12145434  0.62570473    -0.02680
C1080       C  0.72366189  0.09585698  0.60833667    -0.02690
C1081       C  0.67873964  0.08619664  0.62941514     0.07240
C1082       C  0.68809809  0.10321347  0.66914931    -0.02880
Br1083     Br  0.63133923  0.09713056  0.69907653    -0.01430
Br1084     Br  0.73136799  0.11002846  0.74306428    -0.01500
Br1085     Br  0.71852003  0.07037911  0.55450041    -0.01460
Br1086     Br  0.82669129  0.13471437  0.58780308    -0.01440
C1087       C  0.86003743  0.24838536  0.62663969    -0.02570
C1088       C  0.87206435  0.23378081  0.66497589     0.07110
C1089       C  0.91166603  0.27815159  0.68431883    -0.02680
C1090       C  0.93554804  0.32815112  0.66715571    -0.02690
C1091       C  0.92685684  0.33828467  0.62731982     0.07240
C1092       C  0.89107117  0.29484922  0.60679558    -0.02880
Br1093     Br  0.88100416  0.29600368  0.54957411    -0.01430
Br1094     Br  0.79337730  0.22077572  0.60515550    -0.01500
Br1095     Br  0.48353436  0.38402062  0.69785972    -0.01460
Br1096     Br  0.93667338  0.27506214  0.73567346    -0.01440
C1097       C  0.87114271  0.15585900  0.76113195    -0.02570
C1098       C  0.84734233  0.17661894  0.73493761     0.07110
C1099       C  0.82725080  0.20144453  0.75894158    -0.02680
C1100       C  0.82242869  0.19734549  0.80234735    -0.02690
C1101       C  0.84429718  0.17448040  0.82826410     0.07240
C1102       C  0.86035164  0.14642710  0.80333642    -0.02880
Br1103     Br  0.85371849  0.08301428  0.81978937    -0.01430
Br1104     Br  0.92851083  0.14863055  0.74553160    -0.01500
Br1105     Br  0.76396555  0.19962885  0.81883681    -0.01460
Br1106     Br  0.80711515  0.24459932  0.73289932    -0.01440
C1107       C  0.60125699  0.19517174  0.91337691    -0.02570
C1108       C  0.59531998  0.20235939  0.95338903     0.07110
C1109       C  0.60311334  0.24719282  0.96839496    -0.02680
C1110       C  0.62949363  0.28850524  0.94544441    -0.02690
C1111       C  0.63609602  0.28328494  0.90267402     0.07240
C1112       C  0.61562359  0.23436668  0.88688486    -0.02880
Br1113     Br  0.59867317  0.21474807  0.83240005    -0.01430
Br1114     Br  0.59807415  0.13460590  0.89612769    -0.01500
Br1115     Br  0.66161859  0.34947418  0.97712948    -0.01460
Br1116     Br  0.58637232  0.25279256  0.52333128    -0.01440
C1117       C  0.65930302  0.41116672  0.89099677    -0.02570
C1118       C  0.63457576  0.35968466  0.88785117     0.07110
C1119       C  0.58450264  0.33507611  0.90429894    -0.02680
C1120       C  0.57333384  0.35543170  0.93672474    -0.02690
C1121       C  0.60543515  0.40547484  0.94549955     0.07240
C1122       C  0.64691166  0.43321729  0.92151239    -0.02880
Br1123     Br  0.69212462  0.99942884  0.93327021    -0.01430
Br1124     Br  0.69292806  0.45275062  0.84703942    -0.01500
Br1125     Br  0.52186315  0.30957746  0.97395229    -0.01460
Br1126     Br  0.53404739  0.26837306  0.89364385    -0.01440
C1127       C  0.73461876  0.33258440  0.92976688    -0.02570
C1128       C  0.72049151  0.35555467  0.89736852     0.07110
C1129       C  0.76080418  0.40206522  0.88511257    -0.02680
C1130       C  0.80147918  0.42917612  0.91155059    -0.02690
C1131       C  0.80275152  0.40987856  0.94935943     0.07240
C1132       C  0.76860242  0.36157456  0.95859462    -0.02880
Br1133     Br  0.76919525  0.33367069  0.01128527    -0.01430
Br1134     Br  0.71088506  0.26338550  0.94146974    -0.01500
Br1135     Br  0.86070091  0.98631631  0.89338964    -0.01460
Br1136     Br  0.77449786  0.41957647  0.82961888    -0.01440
C1137       C  0.69161982  0.30290228  0.76976485    -0.02570
C1138       C  0.67804368  0.33338533  0.74507456     0.07110
C1139       C  0.65609491  0.35829108  0.76770137    -0.02680
C1140       C  0.63933516  0.34224132  0.80594623    -0.02690
C1141       C  0.66552475  0.32582246  0.83178604     0.07240
C1142       C  0.69487598  0.30843120  0.81176655    -0.02880
Br1143     Br  0.73777443  0.28933531  0.83978801    -0.01430
Br1144     Br  0.69823957  0.24718600  0.75173551    -0.01500
Br1145     Br  0.57057411  0.32618535  0.81196731    -0.01460
Br1146     Br  0.64213226  0.41320792  0.75612435    -0.01440
C1147       C  0.66474082  0.83112717  0.37844540    -0.03210
C1148       C  0.84459044  0.67476147  0.18427717    -0.03210
C1149       C  0.67709772  0.83117184  0.19749228    -0.03210
C1150       C  0.84831358  0.67849769  0.37912714    -0.03210
O1151       O  0.55064669  0.90377914  0.49151014    -0.88900
C1152       C  0.84890657  0.92780427  0.09201906     1.11140
O1153       O  0.54130199  0.97803451  0.03446894    -1.36710
O1154       O  0.86485785  0.90561828  0.48702670    -0.90380
O1155       O  0.62570289  0.96788832  0.49344298    -0.91050
O1156       O  0.58326186  0.54492868  0.44794075    -0.79870
O1157       O  0.95357980  0.89232713  0.99345849    -1.01960
C1158       C  0.95433921  0.56708931  0.46234553     1.21180
O1159       O  0.53836325  0.56374517  0.03613496    -1.36850
Mn1160     Mn  0.51013776  0.50500832  0.08154079     1.82050
O1161       O  0.97859086  0.54561450  0.44832405    -0.78950
O1162       O  0.85713541  0.97393738  0.49081567    -0.88340
C1163       C  0.94911256  0.56013253  0.10984144     1.12270
C1164       C  0.84559939  0.93248823  0.47618543     1.06990
O1165       O  0.58005358  0.53826106  0.12305950    -0.79890
O1166       O  0.95203043  0.97854556  0.03367011    -1.33580
O1167       O  0.62387845  0.56077257  0.07233018    -0.99100
C1168       C  0.58308928  0.66477615  0.48169980     1.05710
Mn1169     Mn  0.90612126  0.51500045  0.03511110     1.48570
O1170       O  0.61597671  0.65342084  0.49347823    -0.88290
Mn1171     Mn  0.62217730  0.51293746  0.03541674     1.49560
O1172       O  0.55161945  0.89890324  0.07845586    -0.92170
C1173       C  0.95697605  0.89620943  0.45685773     1.18900
C1174       C  0.59564160  0.92435058  0.09195064     1.10960
Mn1175     Mn  0.51232061  0.50866137  0.48819135     1.80970
O1176       O  0.94939697  0.56167268  0.07379627    -0.97320
Mn1177     Mn  0.50495643  0.89979327  0.03350476     1.49260
C1178       C  0.59383702  0.92752429  0.47881351     1.07480
Mn1179     Mn  0.49918768  0.60609795  0.03870957     1.49930
C1180       C  0.58583936  0.66048838  0.09827555     1.10380
O1181       O  0.63016043  0.56621480  0.49796439    -1.03130
O1182       O  0.86156938  0.97061172  0.07921228    -0.92790
C1183       C  0.62910940  0.56806835  0.46160321     1.21670
O1184       O  0.95100468  0.56524669  0.49862621    -1.03510
O1185       O  0.86231563  0.89859643  0.07677217    -0.90910
O1186       O  0.54284736  0.64939733  0.08534169    -0.90520
O1187       O  0.62449037  0.96693613  0.07910227    -0.90540
Mn1188     Mn  0.90910699  0.90042710  0.03159376     1.47860
O1189       O  0.97247340  0.53704695  0.12368191    -0.79020
C1190       C  0.62483822  0.56035047  0.10830792     1.14720
O1191       O  0.98071047  0.94195766  0.44507457    -0.77750
O1192       O  0.97705897  0.93522095  0.12092872    -0.77360
Mn1193     Mn  0.61790897  0.60638106  0.03650790     1.51060
O1194       O  0.54126520  0.65072335  0.49682695    -0.89720
O1195       O  0.95343971  0.89222104  0.06963080    -0.97240
O1196       O  0.61388360  0.64592506  0.08268538    -0.92260
C1197       C  0.95386287  0.89128380  0.10579196     1.12510
C1198       C  0.89207750  0.60399359  0.45547615    -0.02570
C1199       C  0.93097478  0.59634633  0.43893408     0.07110
C1200       C  0.94498498  0.61772412  0.40035732    -0.02680
C1201       C  0.92692809  0.65056938  0.38341797    -0.02690
C1202       C  0.88166776  0.65151967  0.39792561     0.07240
C1203       C  0.86232925  0.61747701  0.43030663    -0.02880
Br1204     Br  0.80608916  0.55765850  0.41656013    -0.01430
Br1205     Br  0.86371874  0.57895477  0.50700793    -0.01500
Br1206     Br  0.96341631  0.68391998  0.33688422    -0.01460
Br1207     Br  0.48025900  0.59399807  0.36718554    -0.01440
C1208       C  0.69159485  0.59129479  0.39751021    -0.02570
C1209       C  0.68240872  0.59825455  0.43804851     0.07110
C1210       C  0.72821958  0.63238754  0.45807584    -0.02680
C1211       C  0.77880637  0.65106936  0.44184389    -0.02690
C1212       C  0.78917776  0.64730146  0.39997891     0.07240
C1213       C  0.74217598  0.61230574  0.38020771    -0.02880
Br1214     Br  0.74416206  0.57871677  0.33353021    -0.01430
Br1215     Br  0.63374800  0.54731134  0.36600611    -0.01500
Br1216     Br  0.83368350  0.68590962  0.47915279    -0.01460
Br1217     Br  0.72231706  0.66552942  0.00464637    -0.01440
C1218       C  0.88016397  0.81718245  0.42621109    -0.02570
C1219       C  0.93226598  0.84589270  0.43035683     0.07110
C1220       C  0.95498846  0.82943168  0.40132250    -0.02680
C1221       C  0.92853882  0.77932044  0.38295386    -0.02690
C1222       C  0.87855109  0.74043480  0.39353761     0.07240
C1223       C  0.85516266  0.76604227  0.41264796    -0.02880
Br1224     Br  0.78752149  0.74184115  0.40490302    -0.01430
Br1225     Br  0.85554637  0.85868202  0.40354938    -0.01500
Br1226     Br  0.94678436  0.77784567  0.33014763    -0.01460
Br1227     Br  0.51104029  0.88297278  0.37527833    -0.01440
C1228       C  0.68193118  0.76112025  0.15704412    -0.02590
C1229       C  0.65379964  0.77609759  0.18241099     0.07110
C1230       C  0.60437160  0.73782152  0.19024067    -0.02680
C1231       C  0.58282744  0.69616869  0.16490053    -0.02690
C1232       C  0.60788290  0.69643204  0.12980959     0.07240
C1233       C  0.65825841  0.73000505  0.12600224    -0.02880
Br1234     Br  0.69515217  0.73991222  0.07684807    -0.01430
Br1235     Br  0.75037942  0.77547817  0.16355561    -0.01500
Br1236     Br  0.52651686  0.63614539  0.18205477    -0.01460
Br1237     Br  0.57120800  0.73340339  0.23941417    -0.01440
C1238       C  0.59829186  0.83448588  0.16829371    -0.02570
C1239       C  0.64787046  0.85876200  0.18247856     0.07110
C1240       C  0.67520371  0.91017384  0.17437782    -0.02680
C1241       C  0.66004457  0.93124516  0.14396013    -0.02690
C1242       C  0.61360535  0.90318214  0.12411803     0.07240
C1243       C  0.58428732  0.85335392  0.13532968    -0.02880
Br1244     Br  0.53485287  0.80602072  0.09954601    -0.01430
Br1245     Br  0.55146987  0.82095802  0.20863851    -0.01500
Br1246     Br  0.71210005  0.99172320  0.12380127    -0.01460
Br1247     Br  0.73714615  0.95076788  0.20269063    -0.01440
C1248       C  0.77782746  0.87808559  0.18787028    -0.02570
C1249       C  0.72743051  0.85845604  0.17275331     0.07110
C1250       C  0.72248607  0.86501628  0.13012002    -0.02680
C1251       C  0.76293390  0.89773524  0.10823290    -0.02690
C1252       C  0.81020767  0.90867037  0.12164491     0.07240
C1253       C  0.81787628  0.89698765  0.16068699    -0.02880
Br1254     Br  0.88263766  0.90586581  0.17652716    -0.01430
Br1255     Br  0.79591324  0.87618290  0.24251851    -0.01500
Br1256     Br  0.75317903  0.92484833  0.05810580    -0.01460
Br1257     Br  0.66300879  0.83044304  0.09741137    -0.01440
C1258       C  0.88753723  0.56883802  0.16356495    -0.02570
C1259       C  0.92365592  0.58822155  0.13230304     0.07110
C1260       C  0.93186864  0.63619562  0.11997627    -0.02680
C1261       C  0.91675743  0.66510985  0.14361631    -0.02690
C1262       C  0.87397763  0.64439735  0.16839495     0.07240
C1263       C  0.85925027  0.59348562  0.17702353    -0.02880
Br1264     Br  0.80756733  0.56153302  0.21482938    -0.01430
Br1265     Br  0.87969406  0.51163909  0.19119497    -0.01500
Br1266     Br  0.97207632  0.72198758  0.16193402    -0.01460
Br1267     Br  0.46025815  0.66635538  0.06988729    -0.01440
C1268       C  0.73770555  0.62437232  0.18774110    -0.02570
C1269       C  0.78489126  0.64088925  0.16630673     0.07110
C1270       C  0.77393458  0.62148843  0.12569358    -0.02680
C1271       C  0.72372284  0.59587447  0.10832216    -0.02690
C1272       C  0.67879601  0.58621194  0.12939383     0.07240
C1273       C  0.68814568  0.60326194  0.16911654    -0.02880
Br1274     Br  0.63137596  0.59720856  0.19901515    -0.01430
Br1275     Br  0.73139313  0.61020707  0.24304679    -0.01500
Br1276     Br  0.71859454  0.57042664  0.05447586    -0.01460
Br1277     Br  0.82676024  0.63475868  0.08779982    -0.01440
C1278       C  0.86010400  0.74842753  0.12663196    -0.02570
C1279       C  0.87212365  0.73382235  0.16497013     0.07110
C1280       C  0.91173257  0.77818702  0.18431294    -0.02680
C1281       C  0.93561833  0.82818611  0.16715131    -0.02690
C1282       C  0.92693020  0.83832000  0.12731492     0.07240
C1283       C  0.89114559  0.79488787  0.10678879    -0.02880
Br1284     Br  0.88109785  0.79604130  0.04956546    -0.01430
Br1285     Br  0.79345111  0.72081874  0.10513390    -0.01500
Br1286     Br  0.48360745  0.88405177  0.19785660    -0.01460
Br1287     Br  0.93675396  0.77508625  0.23565989    -0.01440
C1288       C  0.87117883  0.65586993  0.26111195    -0.02570
C1289       C  0.84739344  0.67665438  0.23492930     0.07110
C1290       C  0.82732639  0.70149227  0.25894806    -0.02680
C1291       C  0.82249781  0.69736772  0.30235261    -0.02690
C1292       C  0.84430948  0.67444365  0.32825170     0.07240
C1293       C  0.86037050  0.64640696  0.30330901    -0.02880
Br1294     Br  0.85375942  0.58299361  0.31971199    -0.01430
Br1295     Br  0.92854468  0.64863388  0.24551358    -0.01500
Br1296     Br  0.76416072  0.69981668  0.31891994    -0.01460
Br1297     Br  0.80723936  0.74469896  0.23293752    -0.01440
C1298       C  0.60134723  0.69522717  0.41336680    -0.02570
C1299       C  0.59532952  0.70237165  0.45337238     0.07110
C1300       C  0.60303447  0.74718183  0.46837743    -0.02680
C1301       C  0.62940829  0.78852010  0.44544584    -0.02690
C1302       C  0.63607282  0.78333893  0.40268246     0.07240
C1303       C  0.61565858  0.73442710  0.38688617    -0.02880
Br1304     Br  0.59865670  0.71480153  0.33241040    -0.01430
Br1305     Br  0.59836479  0.63474065  0.39611069    -0.01500
Br1306     Br  0.66148551  0.84945534  0.47717003    -0.01460
Br1307     Br  0.58652093  0.75284494  0.02335780    -0.01440
C1308       C  0.65937408  0.91125600  0.39108716    -0.02570
C1309       C  0.63459134  0.85978091  0.38785191     0.07110
C1310       C  0.58450408  0.83517216  0.40425728    -0.02680
C1311       C  0.57329514  0.85549649  0.43668106    -0.02690
C1312       C  0.60541953  0.90551636  0.44552751     0.07240
C1313       C  0.64700191  0.93327209  0.42163947    -0.02880
Br1314     Br  0.69246788  0.49937519  0.43365451    -0.01430
Br1315     Br  0.69288569  0.95289671  0.34713818    -0.01500
Br1316     Br  0.52177570  0.80958840  0.47385427    -0.01460
Br1317     Br  0.53406980  0.76848303  0.39353714    -0.01440
C1318       C  0.73457306  0.83271976  0.42982399    -0.02570
C1319       C  0.72047856  0.85564860  0.39738223     0.07110
C1320       C  0.76083225  0.90211904  0.38507562    -0.02680
C1321       C  0.80156935  0.92920067  0.41147471    -0.02690
C1322       C  0.80277163  0.90997792  0.44933161     0.07240
C1323       C  0.76853785  0.86173680  0.45864087    -0.02880
Br1324     Br  0.76907427  0.83390976  0.51137772    -0.01430
Br1325     Br  0.71090511  0.76355238  0.44156027    -0.01500
Br1326     Br  0.86094837  0.48612203  0.39321975    -0.01460
Br1327     Br  0.77439558  0.91966188  0.32957535    -0.01440
C1328       C  0.69165434  0.80293091  0.26980927    -0.02570
C1329       C  0.67810985  0.83341985  0.24509426     0.07110
C1330       C  0.65618621  0.85836584  0.26769688    -0.02680
C1331       C  0.63938661  0.84233719  0.30593823    -0.02690
C1332       C  0.66552816  0.82588398  0.33180270     0.07240
C1333       C  0.69487620  0.80846245  0.31181336    -0.02880
Br1334     Br  0.73770374  0.78930940  0.33989479    -0.01430
Br1335     Br  0.69830443  0.74722480  0.25180021    -0.01500
Br1336     Br  0.57066006  0.82645074  0.31194169    -0.01460
Br1337     Br  0.64236582  0.91336267  0.25609126    -0.01440
C1338       C  0.66475009  0.83105378  0.87843172    -0.03210
C1339       C  0.84453991  0.67471716  0.68428537    -0.03210
C1340       C  0.67703478  0.83116622  0.69747441    -0.03210
C1341       C  0.84834087  0.67856984  0.87914179    -0.03210
O1342       O  0.55072403  0.90379923  0.99151052    -0.88900
C1343       C  0.84884025  0.92783820  0.59200189     1.11140
O1344       O  0.54123716  0.97800238  0.53448259    -1.36710
O1345       O  0.86489994  0.90559865  0.98703593    -0.90380
O1346       O  0.62578014  0.96791866  0.99338122    -0.91050
O1347       O  0.58329559  0.54500201  0.94793303    -0.79870
O1348       O  0.95349276  0.89228758  0.49346529    -1.01960
C1349       C  0.95436756  0.56711664  0.96235937     1.21180
O1350       O  0.53832612  0.56372549  0.53613105    -1.36850
Mn1351     Mn  0.51008287  0.50498644  0.58154432     1.82050
O1352       O  0.97862358  0.54565205  0.94832720    -0.78950
O1353       O  0.85711959  0.97388527  0.99084217    -0.88340
C1354       C  0.94907763  0.56012244  0.60983227     1.12270
C1355       C  0.84558850  0.93242949  0.97621656     1.06990
O1356       O  0.57999282  0.53824235  0.62307529    -0.79890
O1357       O  0.95198362  0.97853396  0.53366912    -1.33580
O1358       O  0.62381955  0.56076170  0.57234954    -0.99100
C1359       C  0.58308839  0.66478248  0.98172389     1.05710
Mn1360     Mn  0.90610044  0.51501949  0.53509571     1.48570
O1361       O  0.61598547  0.65344454  0.99350764    -0.88290
Mn1362     Mn  0.62210748  0.51290765  0.53545614     1.49560
O1363       O  0.55154004  0.89886164  0.57845645    -0.92170
C1364       C  0.95706486  0.89625901  0.95685147     1.18900
C1365       C  0.59554684  0.92431961  0.59197858     1.10960
Mn1366     Mn  0.51236550  0.50869672  0.98818864     1.80970
O1367       O  0.94937327  0.56167623  0.57378652    -0.97320
Mn1368     Mn  0.50487612  0.89975846  0.53350881     1.49260
C1369       C  0.59389875  0.92753328  0.97878215     1.07480
Mn1370     Mn  0.49916823  0.60609611  0.53869176     1.49930
C1371       C  0.58581583  0.66050242  0.59824309     1.10380
O1372       O  0.63020488  0.56626742  0.99794901    -1.03130
O1373       O  0.86151919  0.97064224  0.57918281    -0.92790
C1374       C  0.62914332  0.56815873  0.96159007     1.21670
O1375       O  0.95102711  0.56524382  0.99864008    -1.03510
O1376       O  0.86224768  0.89861752  0.57677407    -0.90910
O1377       O  0.54281864  0.64940319  0.58531712    -0.90520
O1378       O  0.62439100  0.96691816  0.57915591    -0.90540
Mn1379     Mn  0.90903489  0.90041647  0.53159659     1.47860
O1380       O  0.97242150  0.53702382  0.62367566    -0.79020
C1381       C  0.62477911  0.56034433  0.60832774     1.14720
O1382       O  0.98077574  0.94200735  0.94506885    -0.77750
O1383       O  0.97699121  0.93519103  0.62093051    -0.77360
Mn1384     Mn  0.61787394  0.60636050  0.53649965     1.51060
O1385       O  0.54126762  0.65073409  0.99685163    -0.89720
O1386       O  0.95335576  0.89218469  0.56963521    -0.97240
O1387       O  0.61385900  0.64593742  0.58265410    -0.92260
C1388       C  0.95378591  0.89125105  0.60579607     1.12510
C1389       C  0.89221139  0.60415239  0.95556349    -0.02570
C1390       C  0.93102604  0.59641541  0.93896842     0.07110
C1391       C  0.94494929  0.61771451  0.90035861    -0.02680
C1392       C  0.92691159  0.65057874  0.88342923    -0.02690
C1393       C  0.88168730  0.65158127  0.89796187     0.07240
C1394       C  0.86243932  0.61766238  0.93043962    -0.02880
Br1395     Br  0.80594524  0.55789420  0.91704145    -0.01430
Br1396     Br  0.86395832  0.57917733  0.00714291    -0.01500
Br1397     Br  0.96340470  0.68391757  0.83689153    -0.01460
Br1398     Br  0.48003332  0.59383383  0.86712300    -0.01440
C1399       C  0.69161733  0.59151612  0.89748017    -0.02570
C1400       C  0.68242968  0.59841770  0.93803280     0.07110
C1401       C  0.72823379  0.63254733  0.95807143    -0.02680
C1402       C  0.77882351  0.65126620  0.94183851    -0.02690
C1403       C  0.78920579  0.64743610  0.89998868     0.07240
C1404       C  0.74220687  0.61244344  0.88021574    -0.02880
Br1405     Br  0.74418489  0.57868763  0.83363585    -0.01430
Br1406     Br  0.63377527  0.54763972  0.86591300    -0.01500
Br1407     Br  0.83369249  0.68611724  0.97914995    -0.01460
Br1408     Br  0.72232181  0.66546158  0.50460084    -0.01440
C1409       C  0.88026289  0.81730212  0.92614515    -0.02570
C1410       C  0.93236001  0.84595351  0.93034765     0.07110
C1411       C  0.95509782  0.82946361  0.90134764    -0.02680
C1412       C  0.92862909  0.77935510  0.88297675    -0.02690
C1413       C  0.87861952  0.74050892  0.89353661     0.07240
C1414       C  0.85524545  0.76616369  0.91258249    -0.02880
Br1415     Br  0.78766650  0.74204058  0.90467365    -0.01430
Br1416     Br  0.85574221  0.85887768  0.90345784    -0.01500
Br1417     Br  0.94682260  0.77787481  0.83015775    -0.01460
Br1418     Br  0.51116277  0.88298329  0.87529923    -0.01440
C1419       C  0.68190274  0.76116323  0.65699144    -0.02590
C1420       C  0.65375992  0.77610707  0.68237451     0.07110
C1421       C  0.60434312  0.73781292  0.69021223    -0.02680
C1422       C  0.58280767  0.69616803  0.66486765    -0.02690
C1423       C  0.60786024  0.69644934  0.62977104     0.07240
C1424       C  0.65823087  0.73003820  0.62595404    -0.02880
Br1425     Br  0.69512110  0.73993211  0.57679947    -0.01430
Br1426     Br  0.75036028  0.77554664  0.66350398    -0.01500
Br1427     Br  0.52650305  0.63613558  0.68201693    -0.01460
Br1428     Br  0.57118301  0.73336405  0.73939592    -0.01440
C1429       C  0.59820706  0.83442898  0.66828138    -0.02570
C1430       C  0.64777576  0.85872603  0.68248496     0.07110
C1431       C  0.67507732  0.91014661  0.67442874    -0.02680
C1432       C  0.65991758  0.93122364  0.64401875    -0.02690
C1433       C  0.61350207  0.90314857  0.62414590     0.07240
C1434       C  0.58420576  0.85330519  0.63532315    -0.02880
Br1435     Br  0.53481911  0.80597998  0.59950517    -0.01430
Br1436     Br  0.55136138  0.82086672  0.70861403    -0.01500
Br1437     Br  0.71196389  0.99173300  0.62390904    -0.01460
Br1438     Br  0.73698520  0.95074052  0.70278803    -0.01440
C1439       C  0.77776665  0.87812872  0.68785566    -0.02570
C1440       C  0.72736926  0.85849706  0.67273969     0.07110
C1441       C  0.72243060  0.86509702  0.63011322    -0.02680
C1442       C  0.76287980  0.89785215  0.60824525    -0.02690
C1443       C  0.81014880  0.90873753  0.62163680     0.07240
C1444       C  0.81781306  0.89702695  0.66067041    -0.02880
Br1445     Br  0.88255539  0.90583528  0.67649138    -0.01430
Br1446     Br  0.79585853  0.87619541  0.74249456    -0.01500
Br1447     Br  0.75312499  0.92505456  0.55816651    -0.01460
Br1448     Br  0.66298313  0.83049900  0.59737776    -0.01440
C1449       C  0.88752955  0.56882058  0.66357919    -0.02570
C1450       C  0.92361360  0.58819711  0.63229526     0.07110
C1451       C  0.93179354  0.63615272  0.61995283    -0.02680
C1452       C  0.91668718  0.66506858  0.64359605    -0.02690
C1453       C  0.87393078  0.64435712  0.66839950     0.07240
C1454       C  0.85923284  0.59345382  0.67704225    -0.02880
Br1455     Br  0.80758920  0.56148771  0.71487054    -0.01430
Br1456     Br  0.87974961  0.51165592  0.69123267    -0.01500
Br1457     Br  0.97200324  0.72195455  0.66189194    -0.01460
Br1458     Br  0.46013295  0.66626888  0.56983867    -0.01440
C1459       C  0.73766065  0.62429870  0.68776939    -0.02570
C1460       C  0.78484019  0.64083863  0.66632202     0.07110
C1461       C  0.77387576  0.62145426  0.62570471    -0.02680
C1462       C  0.72366168  0.59585687  0.60833669    -0.02690
C1463       C  0.67873945  0.58619656  0.62941518     0.07240
C1464       C  0.68809793  0.60321346  0.66914932    -0.02880
Br1465     Br  0.63133908  0.59713061  0.69907654    -0.01430
Br1466     Br  0.73136787  0.61002868  0.74306431    -0.01500
Br1467     Br  0.71851976  0.57037881  0.55450049    -0.01460
Br1468     Br  0.82669102  0.63471426  0.58780299    -0.01440
C1469       C  0.86003738  0.74838529  0.62663969    -0.02570
C1470       C  0.87206426  0.73378068  0.66497588     0.07110
C1471       C  0.91166603  0.77815140  0.68431883    -0.02680
C1472       C  0.93554811  0.82815094  0.66715573    -0.02690
C1473       C  0.92685687  0.83828455  0.62731987     0.07240
C1474       C  0.89107115  0.79484915  0.60679562    -0.02880
Br1475     Br  0.88100418  0.79600368  0.54957414    -0.01430
Br1476     Br  0.79337729  0.72077568  0.60515545    -0.01500
Br1477     Br  0.48353469  0.88402090  0.69785951    -0.01460
Br1478     Br  0.93667334  0.77506188  0.73567346    -0.01440
C1479       C  0.87114244  0.65585861  0.76113188    -0.02570
C1480       C  0.84734220  0.67661874  0.73493757     0.07110
C1481       C  0.82725084  0.70144445  0.75894160    -0.02680
C1482       C  0.82242882  0.69734544  0.80234738    -0.02690
C1483       C  0.84429716  0.67448019  0.82826408     0.07240
C1484       C  0.86035138  0.64642672  0.80333637    -0.02880
Br1485     Br  0.85371816  0.58301389  0.81978938    -0.01430
Br1486     Br  0.92851039  0.64862990  0.74553144    -0.01500
Br1487     Br  0.76396606  0.69962932  0.81883707    -0.01460
Br1488     Br  0.80711531  0.74459938  0.73289941    -0.01440
C1489       C  0.60125707  0.69517186  0.91337679    -0.02570
C1490       C  0.59531956  0.70235934  0.95338885     0.07110
C1491       C  0.60311278  0.74719274  0.96839476    -0.02680
C1492       C  0.62949326  0.78850522  0.94544430    -0.02690
C1493       C  0.63609586  0.78328501  0.90267394     0.07240
C1494       C  0.61562360  0.73436678  0.88688476    -0.02880
Br1495     Br  0.59867332  0.71474811  0.83239995    -0.01430
Br1496     Br  0.59807573  0.63460663  0.89612773    -0.01500
Br1497     Br  0.66161814  0.84947409  0.97712944    -0.01460
Br1498     Br  0.58637257  0.75279261  0.52333128    -0.01440
C1499       C  0.65930297  0.91116682  0.89099672    -0.02570
C1500       C  0.63457568  0.85968477  0.88785104     0.07110
C1501       C  0.58450248  0.83507620  0.90429864    -0.02680
C1502       C  0.57333351  0.85543173  0.93672437    -0.02690
C1503       C  0.60543480  0.90547482  0.94549928     0.07240
C1504       C  0.64691148  0.93321732  0.92151228    -0.02880
Br1505     Br  0.69212474  0.49942885  0.93327009    -0.01430
Br1506     Br  0.69292815  0.95275080  0.84703944    -0.01500
Br1507     Br  0.52186261  0.80957743  0.97395176    -0.01460
Br1508     Br  0.53404732  0.76837320  0.89364342    -0.01440
C1509       C  0.73461854  0.83258452  0.92976697    -0.02570
C1510       C  0.72049137  0.85555476  0.89736853     0.07110
C1511       C  0.76080408  0.90206525  0.88511254    -0.02680
C1512       C  0.80147909  0.92917615  0.91155054    -0.02690
C1513       C  0.80275141  0.90987864  0.94935940     0.07240
C1514       C  0.76860227  0.86157470  0.95859467    -0.02880
Br1515     Br  0.76919531  0.83367085  0.01128529    -0.01430
Br1516     Br  0.71088484  0.76338564  0.94146987    -0.01500
Br1517     Br  0.86070100  0.48631633  0.89338971    -0.01460
Br1518     Br  0.77449779  0.91957646  0.82961884    -0.01440
C1519       C  0.69161992  0.80290236  0.76976486    -0.02570
C1520       C  0.67804387  0.83338545  0.74507452     0.07110
C1521       C  0.65609516  0.85829129  0.76770126    -0.02680
C1522       C  0.63933527  0.84224153  0.80594610    -0.02690
C1523       C  0.66552472  0.82582257  0.83178598     0.07240
C1524       C  0.69487597  0.80843127  0.81176657    -0.02880
Br1525     Br  0.73777422  0.78933521  0.83978819    -0.01430
Br1526     Br  0.69823972  0.74718609  0.75173558    -0.01500
Br1527     Br  0.57057432  0.82618607  0.81196711    -0.01460
Br1528     Br  0.64213291  0.91320834  0.75612414    -0.01440
loop_ 
_geom_bond_atom_site_label_1 
_geom_bond_atom_site_label_2 
_geom_bond_distance 
_geom_bond_site_symmetry_2 
_ccdc_geom_bond_type 
C1          C156   1.538       .  S
C1          C163   1.579       .  S
C1          C173   1.612       .  S
C1          C186   1.576       .  S
C2          C116   1.663       .  S
C2          C123   1.708       .  S
C2          C133   1.725       .  S
C2          C143   1.700       .  S
C3           C83   1.580       .  S
C3           C93   1.567       .  S
C3          C103   1.590       .  S
C3          C183   1.598       .  S
C4           C56   1.698       .  S
C4           C66   1.736       .  S
C4           C76   1.748       .  S
C4          C146   1.710       .  S
O5           C32   1.237       .  A
O5         Mn222   1.952       .  S
C6           O39   1.263       .  A
C6           O36   1.258       .  A
C6          C106   1.441       .  S
O7          Mn31   2.121       .  S
O7         Mn396   2.210       .  S
O7         Mn407   2.160       .  S
O7         Mn602   2.190   1_554  S
O8           C18   1.267       .  A
O8         Mn233   2.050       .  S
O9           C32   1.256       .  A
O9         Mn598   2.025       .  S
O10          C37   1.303       .  A
O10         Mn29   2.338       .  S
O11         Mn42   1.972   1_556  S
O11        Mn795   1.973   1_556  S
O11         C218   1.234       .  S
C12          O15   1.294       .  A
C12          C53   1.584       .  S
C12          O38   1.221       .  S
O13         Mn33   2.144   1_455  S
O13         Mn14   2.200       .  S
O13         Mn47   2.129       .  S
O13        Mn220   2.196   1_554  S
Mn14         O19   2.317       .  S
Mn14        O807   2.326   1_455  S
Mn14       O1192   2.304   1_445  S
Mn14        O389   2.210   1_545  S
Mn14       O1166   2.221   1_445  S
O15        Mn793   2.274       .  S
O16          C18   1.255       .  A
O16        Mn596   2.050       .  S
C17          O43   1.299       .  A
C17         C113   1.604       .  S
C17          O30   1.209       .  S
C18         C176   1.450       .  S
O19          C44   1.298       .  A
O20         Mn42   2.124       .  S
O20       Mn1160   2.221       .  S
O20        Mn405   2.165       .  S
O20       Mn1366   2.230   1_554  S
O21         Mn25   1.914       .  S
O21         Mn47   1.912       .  S
O21          C44   1.207       .  S
C22          O48   1.243       .  A
C22          O24   1.262       .  A
C22         C153   1.401       .  S
Mn23        O589   2.050   1_544  S
Mn23        O418   2.036   1_545  S
Mn23        O402   2.165   1_545  S
Mn23         O30   1.915       .  S
Mn23        O229   1.937   1_554  S
O24        Mn238   2.056       .  S
Mn25        O582   2.025   1_544  S
Mn25        O423   2.053   1_545  S
Mn25        O389   2.160   1_545  S
Mn25        O226   1.982   1_554  S
O26          C28   1.264       .  A
O26         Mn31   2.063       .  S
C27          O45   1.301       .  A
C27          C73   1.629       .  S
C27         O202   1.234       .  S
C28          O41   1.257       .  A
C28          C96   1.482       .  S
Mn29        O779   2.274   1_455  S
Mn29       O1191   2.318   1_445  S
Mn29        O580   2.190   1_545  S
Mn29        O204   2.197       .  S
Mn29       O1357   2.230   1_445  S
O30        Mn797   1.895       .  S
Mn31        O196   1.952   1_554  S
Mn31        O775   1.973   1_454  S
Mn31        O813   1.914   1_455  S
C32         C166   1.442       .  S
Mn33         O40   2.069   1_655  S
Mn33        O239   1.959   1_654  S
Mn33        O794   1.895       .  S
Mn33        O993   1.937   1_554  S
C34          O40   1.253       .  A
C34          O50   1.255       .  A
C34          C86   1.445       .  S
O35        Mn216   1.982       .  S
O35        Mn238   1.953       .  S
O35          C37   1.221       .  S
O36        Mn405   2.036       .  S
C37          C63   1.641       .  S
O38        Mn214   1.937       .  S
O38        Mn988   1.937       .  S
O39         Mn42   2.072       .  S
O41        Mn407   2.053       .  S
Mn42        O199   2.050   1_554  S
Mn42         O49   1.942       .  S
O43        Mn778   2.326       .  S
C44         C126   1.598       .  S
O45       Mn1175   2.318       .  S
O46          C51   1.297       .  A
O46       Mn1160   2.304       .  S
Mn47         O50   2.019       .  S
Mn47        O215   2.056   1_554  S
Mn47        O226   1.953   1_554  S
O48        Mn224   1.959   1_455  S
O49        Mn795   1.914       .  S
O49          C51   1.213       .  S
C51         C136   1.605       .  S
C52          C53   1.428       .  A
C52          C57   1.424       .  A
C52         Br59   1.925       .  S
C53          C54   1.422       .  A
C54          C55   1.467       .  A
C54        Br825   1.924       .  S
C55          C56   1.476       .  A
C55         Br60   1.911       .  S
C56          C57   1.427       .  A
C57         Br58   1.877       .  S
Br61        C818   1.924       .  S
C62          C63   1.430       .  A
C62          C67   1.477       .  A
C62         Br69   1.936       .  S
C63          C64   1.444       .  A
C64          C65   1.469       .  A
C64        Br262   1.927       .  S
C65          C66   1.460       .  A
C65         Br70   1.939       .  S
C66          C67   1.470       .  A
C67         Br68   1.901       .  S
Br71        C255   1.926   1_554  S
C72          C73   1.402       .  A
C72          C77   1.460       .  A
C72         Br79   1.909       .  S
C73          C74   1.428       .  A
C74          C75   1.494       .  A
C74        Br845   1.929       .  S
C75          C76   1.463       .  A
C75         Br80   1.870       .  S
C76          C77   1.445       .  A
C77         Br78   1.835       .  S
Br81        C838   1.929   1_455  S
C82          C83   1.437       .  A
C82          C87   1.364       .  A
C82         Br89   1.916       .  S
C83          C84   1.425       .  A
C84          C85   1.415       .  A
C84         Br91   1.913       .  S
C85          C86   1.407       .  A
C85         Br90   1.916       .  S
C86          C87   1.386       .  A
C87         Br88   1.944       .  S
C92          C93   1.402       .  A
C92          C97   1.397       .  A
C92         Br99   1.871       .  S
C93          C94   1.421       .  A
C94          C95   1.390       .  A
C94        Br101   1.933       .  S
C95          C96   1.415       .  A
C95        Br100   1.905       .  S
C96          C97   1.410       .  A
C97         Br98   1.928       .  S
C102        C103   1.437       .  A
C102        C107   1.412       .  A
C102       Br109   1.915       .  S
C103        C104   1.458       .  A
C104        C105   1.377       .  A
C104       Br111   1.932       .  S
C105        C106   1.378       .  A
C105       Br110   1.952       .  S
C106        C107   1.401       .  A
C107       Br108   1.918       .  S
C112        C113   1.433       .  A
C112        C117   1.466       .  A
C112       Br119   1.897       .  S
C113        C114   1.434       .  A
C114        C115   1.428       .  A
C114       Br885   1.918       .  S
C115        C116   1.419       .  A
C115       Br120   1.860       .  S
C116        C117   1.439       .  A
C117       Br118   1.897       .  S
Br121       C878   1.918       .  S
C122        C123   1.467       .  A
C122        C127   1.458       .  A
C122       Br129   1.893       .  S
C123        C124   1.462       .  A
C124        C125   1.457       .  A
C124       Br131   1.942       .  S
C125        C126   1.442       .  A
C125       Br130   1.950       .  S
C126        C127   1.411       .  A
C127       Br128   1.934       .  S
C132        C133   1.457       .  A
C132        C137   1.448       .  A
C132       Br139   1.915       .  S
C133        C134   1.472       .  A
C134        C135   1.471       .  A
C134       Br141   1.893       .  S
C135        C136   1.419       .  A
C135       Br904   1.937       .  S
C136        C137   1.434       .  A
C137       Br138   1.942       .  S
Br140       C899   1.937       .  S
C142        C143   1.454       .  A
C142        C147   1.452       .  A
C142       Br149   1.935       .  S
C143        C144   1.439       .  A
C144        C145   1.463       .  A
C144       Br151   1.907       .  S
C145        C146   1.452       .  A
C145       Br150   1.897       .  S
C146        C147   1.451       .  A
C147       Br148   1.941       .  S
C152        C153   1.390       .  A
C152        C157   1.389       .  A
C152       Br159   1.915       .  S
C153        C154   1.384       .  A
C154        C155   1.372       .  A
C154       Br352   1.948       .  S
C155        C156   1.472       .  A
C155       Br160   1.968       .  S
C156        C157   1.432       .  A
C157       Br158   1.915       .  S
Br161       C345   1.948   1_554  S
C162        C163   1.399       .  A
C162        C167   1.383       .  A
C162       Br169   1.902       .  S
C163        C164   1.451       .  A
C164        C165   1.383       .  A
C164       Br171   1.923       .  S
C165        C166   1.409       .  A
C165       Br170   1.979       .  S
C166        C167   1.398       .  A
C167       Br550   1.881       .  S
Br168       C549   1.881       .  S
C172        C173   1.458       .  A
C172        C177   1.381       .  A
C172       Br179   1.936       .  S
C173        C174   1.434       .  A
C174        C175   1.418       .  A
C174       Br181   1.928       .  S
C175        C176   1.404       .  A
C175       Br562   1.924       .  S
C176        C177   1.385       .  A
C177       Br178   1.962       .  S
Br180       C557   1.924       .  S
C182        C183   1.443       .  A
C182        C187   1.417       .  A
C182       Br189   1.923       .  S
C183        C184   1.454       .  A
C184        C185   1.384       .  A
C184       Br191   1.963       .  S
C185        C186   1.412       .  A
C185       Br190   1.914       .  S
C186        C187   1.416       .  A
C187       Br188   1.899       .  S
C192        C347   1.537       .  S
C192        C354   1.579       .  S
C192        C364   1.612       .  S
C192        C377   1.576       .  S
C193        C307   1.663       .  S
C193        C314   1.708       .  S
C193        C324   1.725       .  S
C193        C334   1.700       .  S
C194        C274   1.580       .  S
C194        C284   1.567       .  S
C194        C294   1.590       .  S
C194        C374   1.598       .  S
C195        C247   1.698       .  S
C195        C257   1.735       .  S
C195        C267   1.748       .  S
C195        C337   1.711       .  S
O196        C223   1.237       .  A
C197        O230   1.264       .  A
C197        O227   1.258       .  A
C197        C297   1.441       .  S
O198       Mn587   2.209       .  S
O198       Mn598   2.160       .  S
O198       Mn411   2.190       .  S
O198       Mn222   2.121       .  S
O199        C209   1.267       .  A
O200        C223   1.256       .  A
O200       Mn407   2.025   1_556  S
O201        C228   1.303       .  A
O201       Mn220   2.338       .  S
O202       Mn233   1.972       .  S
O202       Mn986   1.973       .  S
C203        O206   1.294       .  A
C203        C244   1.584       .  S
C203        O229   1.221       .  S
O204       Mn224   2.144   1_455  S
O204       Mn205   2.200       .  S
O204       Mn238   2.129       .  S
Mn205       O998   2.326   1_455  S
Mn205       O210   2.317       .  S
Mn205      O1383   2.304   1_445  S
Mn205       O580   2.209   1_545  S
Mn205      O1357   2.221   1_445  S
O206       Mn984   2.274       .  S
O207        C209   1.255       .  A
O207       Mn405   2.050   1_556  S
C208        O234   1.299       .  A
C208        C304   1.604       .  S
C208        O221   1.209       .  S
C209        C367   1.451       .  S
O210        C235   1.298       .  A
O211      Mn1351   2.221       .  S
O211       Mn596   2.165       .  S
O211       Mn233   2.124       .  S
O211      Mn1175   2.230       .  S
O212       Mn216   1.914       .  S
O212       Mn238   1.912       .  S
O212        C235   1.207       .  S
C213        O239   1.243       .  A
C213        O215   1.261       .  A
C213        C344   1.401       .  S
Mn214       O398   2.050   1_545  S
Mn214       O609   2.036   1_545  S
Mn214       O593   2.165   1_545  S
Mn214       O221   1.915       .  S
Mn216       O391   2.025   1_545  S
Mn216       O614   2.053   1_545  S
Mn216       O580   2.160   1_545  S
O217        C219   1.264       .  A
O217       Mn222   2.063       .  S
C218        O236   1.301       .  A
C218        C264   1.629       .  S
C219        O232   1.257       .  A
C219        C287   1.482       .  S
Mn220       O970   2.274   1_455  S
Mn220      O1382   2.318   1_445  S
Mn220       O389   2.190   1_546  S
Mn220      O1166   2.230   1_446  S
O221       Mn988   1.896       .  S
Mn222       O966   1.973   1_455  S
Mn222      O1004   1.914   1_455  S
C223        C357   1.442       .  S
Mn224       O231   2.069   1_655  S
Mn224       O985   1.896       .  S
Mn224       O802   1.937       .  S
C225        O231   1.253       .  A
C225        O241   1.255       .  A
C225        C277   1.445       .  S
O226        C228   1.221       .  S
O227       Mn596   2.036       .  S
C228        C254   1.641       .  S
O229       Mn797   1.937   1_556  S
O230       Mn233   2.072       .  S
O232       Mn598   2.053       .  S
Mn233       O240   1.942       .  S
O234       Mn969   2.326       .  S
C235        C317   1.598       .  S
O236      Mn1366   2.318       .  S
O237        C242   1.297       .  A
O237      Mn1351   2.304       .  S
Mn238       O241   2.018       .  S
O240       Mn986   1.914       .  S
O240        C242   1.213       .  S
C242        C327   1.606       .  S
C243        C244   1.427       .  A
C243        C248   1.424       .  A
C243       Br250   1.926   1_556  S
C244        C245   1.422       .  A
C245        C246   1.467       .  A
C245      Br1016   1.924       .  S
C246        C247   1.476       .  A
C246       Br251   1.911       .  S
C247        C248   1.427       .  A
C248       Br249   1.877       .  S
Br252      C1009   1.924       .  S
C253        C254   1.430       .  A
C253        C258   1.477       .  A
C253       Br260   1.936       .  S
C254        C255   1.444       .  A
C255        C256   1.469       .  A
C256        C257   1.460       .  A
C256       Br261   1.939       .  S
C257        C258   1.470       .  A
C258       Br259   1.901       .  S
C263        C264   1.402       .  A
C263        C268   1.460       .  A
C263       Br270   1.909       .  S
C264        C265   1.428       .  A
C265        C266   1.494       .  A
C265      Br1036   1.929       .  S
C266        C267   1.463       .  A
C266       Br271   1.870       .  S
C267        C268   1.445       .  A
C268       Br269   1.834       .  S
Br272      C1029   1.929   1_455  S
C273        C274   1.437       .  A
C273        C278   1.364       .  A
C273       Br280   1.916       .  S
C274        C275   1.425       .  A
C275        C276   1.415       .  A
C275       Br282   1.913       .  S
C276        C277   1.407       .  A
C276       Br281   1.916       .  S
C277        C278   1.386       .  A
C278       Br279   1.944       .  S
C283        C284   1.402       .  A
C283        C288   1.397       .  A
C283       Br290   1.871       .  S
C284        C285   1.421       .  A
C285        C286   1.390       .  A
C285       Br292   1.933       .  S
C286        C287   1.415       .  A
C286       Br291   1.905       .  S
C287        C288   1.410       .  A
C288       Br289   1.929       .  S
C293        C294   1.437       .  A
C293        C298   1.412       .  A
C293       Br300   1.915       .  S
C294        C295   1.458       .  A
C295        C296   1.377       .  A
C295       Br302   1.932       .  S
C296        C297   1.378       .  A
C296       Br301   1.951       .  S
C297        C298   1.401       .  A
C298       Br299   1.918       .  S
C303        C304   1.433       .  A
C303        C308   1.466       .  A
C303       Br310   1.897       .  S
C304        C305   1.434       .  A
C305        C306   1.428       .  A
C305      Br1076   1.918       .  S
C306        C307   1.419       .  A
C306       Br311   1.860       .  S
C307        C308   1.439       .  A
C308       Br309   1.897       .  S
Br312      C1069   1.918       .  S
C313        C314   1.467       .  A
C313        C318   1.458       .  A
C313       Br320   1.893       .  S
C314        C315   1.462       .  A
C315        C316   1.457       .  A
C315       Br322   1.942       .  S
C316        C317   1.442       .  A
C316       Br321   1.950       .  S
C317        C318   1.411       .  A
C318       Br319   1.934       .  S
C323        C324   1.457       .  A
C323        C328   1.448       .  A
C323       Br330   1.915       .  S
C324        C325   1.472       .  A
C325        C326   1.471       .  A
C325       Br332   1.893       .  S
C326        C327   1.419       .  A
C326      Br1095   1.937       .  S
C327        C328   1.434       .  A
C328       Br329   1.942       .  S
Br331      C1090   1.937       .  S
C333        C334   1.454       .  A
C333        C338   1.453       .  A
C333       Br340   1.935       .  S
C334        C335   1.439       .  A
C335        C336   1.463       .  A
C335       Br342   1.907       .  S
C336        C337   1.452       .  A
C336       Br341   1.897       .  S
C337        C338   1.451       .  A
C338       Br339   1.941       .  S
C343        C344   1.390       .  A
C343        C348   1.389       .  A
C343       Br350   1.915       .  S
C344        C345   1.383       .  A
C345        C346   1.372       .  A
C346        C347   1.472       .  A
C346       Br351   1.968       .  S
C347        C348   1.432       .  A
C348       Br349   1.915       .  S
C353        C354   1.399       .  A
C353        C358   1.383       .  A
C353       Br360   1.902       .  S
C354        C355   1.451       .  A
C355        C356   1.383       .  A
C355       Br362   1.924       .  S
C356        C357   1.409       .  A
C356       Br361   1.979       .  S
C357        C358   1.397       .  A
C358       Br741   1.880       .  S
Br359       C740   1.880       .  S
C363        C364   1.458       .  A
C363        C368   1.381       .  A
C363       Br370   1.936       .  S
C364        C365   1.433       .  A
C365        C366   1.418       .  A
C365       Br372   1.928       .  S
C366        C367   1.404       .  A
C366       Br753   1.924       .  S
C367        C368   1.385       .  A
C368       Br369   1.962   1_556  S
Br371       C748   1.924       .  S
C373        C374   1.443       .  A
C373        C378   1.417       .  A
C373       Br380   1.923       .  S
C374        C375   1.454       .  A
C375        C376   1.384       .  A
C375       Br382   1.963       .  S
C376        C377   1.412       .  A
C376       Br381   1.914       .  S
C377        C378   1.416       .  A
C378       Br379   1.899       .  S
C383        C538   1.538       .  S
C383        C545   1.579       .  S
C383        C555   1.612       .  S
C383        C568   1.576       .  S
C384        C498   1.663       .  S
C384        C505   1.708       .  S
C384        C515   1.725       .  S
C384        C525   1.700       .  S
C385        C465   1.580       .  S
C385        C475   1.567       .  S
C385        C485   1.590       .  S
C385        C565   1.598       .  S
C386        C438   1.698       .  S
C386        C448   1.736       .  S
C386        C458   1.748       .  S
C386        C528   1.710       .  S
O387        C414   1.237       .  A
O387       Mn604   1.952       .  S
C388        O421   1.263       .  A
C388        O418   1.258       .  A
C388        C488   1.441       .  S
O389       Mn413   2.121       .  S
O390        C400   1.267       .  A
O390       Mn615   2.050       .  S
O391        C414   1.256       .  A
O392        C419   1.303       .  A
O392       Mn411   2.338       .  S
O393       Mn424   1.972   1_556  S
O393      Mn1177   1.973   1_556  S
O393        C600   1.234       .  S
C394        O397   1.294       .  A
C394        C435   1.584       .  S
C394        O420   1.221       .  S
O395       Mn415   2.144   1_455  S
O395       Mn396   2.200       .  S
O395       Mn429   2.129       .  S
O395       Mn602   2.196   1_554  S
Mn396      O1189   2.326   1_455  S
Mn396       O401   2.317       .  S
Mn396       O810   2.304   1_455  S
Mn396       O784   2.221   1_455  S
O397      Mn1175   2.274       .  S
O398        C400   1.255       .  A
C399        O425   1.299       .  A
C399        C495   1.604       .  S
C399        O412   1.209       .  S
C400        C558   1.450       .  S
O401        C426   1.298       .  A
O402       Mn778   2.221   1_565  S
O402       Mn424   2.124       .  S
O402       Mn984   2.230   1_564  S
O403       Mn407   1.914       .  S
O403       Mn429   1.912       .  S
O403        C426   1.207       .  S
C404        O430   1.243       .  A
C404        O406   1.262       .  A
C404        C535   1.401       .  S
Mn405       O611   1.937   1_554  S
Mn405       O412   1.915       .  S
O406       Mn620   2.056       .  S
Mn407       O608   1.982   1_554  S
O408        C410   1.264       .  A
O408       Mn413   2.063       .  S
C409        O427   1.301       .  A
C409        C455   1.629       .  S
C409        O584   1.234       .  S
C410        O423   1.257       .  A
C410        C478   1.482       .  S
Mn411      O1161   2.274   1_455  S
Mn411       O809   2.318   1_455  S
Mn411       O586   2.197       .  S
Mn411       O975   2.230   1_455  S
O412      Mn1179   1.895       .  S
Mn413       O578   1.952   1_554  S
Mn413      O1157   1.973   1_454  S
Mn413      O1195   1.914   1_455  S
C414        C548   1.442       .  S
Mn415       O422   2.069   1_655  S
Mn415       O621   1.959   1_654  S
Mn415      O1176   1.895       .  S
Mn415      O1375   1.937   1_554  S
C416        O422   1.253       .  A
C416        O432   1.255       .  A
C416        C468   1.445       .  S
O417       Mn598   1.982       .  S
O417       Mn620   1.953       .  S
O417        C419   1.221       .  S
C419        C445   1.641       .  S
O420       Mn596   1.937       .  S
O420      Mn1370   1.937       .  S
O421       Mn424   2.072       .  S
Mn424       O581   2.050   1_554  S
Mn424       O431   1.942       .  S
O425      Mn1160   2.326       .  S
C426        C508   1.598       .  S
O427       Mn793   2.318   1_565  S
O428        C433   1.297       .  A
O428       Mn778   2.304   1_565  S
Mn429       O597   2.056   1_554  S
Mn429       O432   2.019       .  S
Mn429       O608   1.953   1_554  S
O430       Mn606   1.959   1_455  S
O431      Mn1177   1.914       .  S
O431        C433   1.213       .  S
C433        C518   1.605       .  S
C434        C435   1.428       .  A
C434        C439   1.424       .  A
C434       Br441   1.925       .  S
C435        C436   1.422       .  A
C436        C437   1.467       .  A
C436      Br1207   1.924       .  S
C437        C438   1.476       .  A
C437       Br442   1.911       .  S
C438        C439   1.427       .  A
C439       Br440   1.877       .  S
Br443      C1200   1.924       .  S
C444        C445   1.430       .  A
C444        C449   1.477       .  A
C444       Br451   1.936       .  S
C445        C446   1.444       .  A
C446        C447   1.469       .  A
C446       Br644   1.927       .  S
C447        C448   1.460       .  A
C447       Br452   1.939       .  S
C448        C449   1.470       .  A
C449       Br450   1.901       .  S
Br453       C637   1.926   1_554  S
C454        C455   1.402       .  A
C454        C459   1.460       .  A
C454       Br461   1.909       .  S
C455        C456   1.428       .  A
C456        C457   1.494       .  A
C456      Br1227   1.929       .  S
C457        C458   1.463       .  A
C457       Br462   1.870       .  S
C458        C459   1.445       .  A
C459       Br460   1.835       .  S
Br463      C1220   1.929   1_455  S
C464        C465   1.437       .  A
C464        C469   1.364       .  A
C464       Br471   1.916       .  S
C465        C466   1.425       .  A
C466        C467   1.415       .  A
C466       Br473   1.913       .  S
C467        C468   1.407       .  A
C467       Br472   1.916       .  S
C468        C469   1.386       .  A
C469       Br470   1.944       .  S
C474        C475   1.402       .  A
C474        C479   1.397       .  A
C474       Br481   1.871       .  S
C475        C476   1.421       .  A
C476        C477   1.390       .  A
C476       Br483   1.933       .  S
C477        C478   1.415       .  A
C477       Br482   1.905       .  S
C478        C479   1.410       .  A
C479       Br480   1.928       .  S
C484        C485   1.437       .  A
C484        C489   1.412       .  A
C484       Br491   1.915       .  S
C485        C486   1.458       .  A
C486        C487   1.377       .  A
C486       Br493   1.932       .  S
C487        C488   1.378       .  A
C487       Br492   1.952       .  S
C488        C489   1.401       .  A
C489       Br490   1.918       .  S
C494        C495   1.433       .  A
C494        C499   1.466       .  A
C494       Br501   1.897       .  S
C495        C496   1.434       .  A
C496        C497   1.428       .  A
C496      Br1267   1.918       .  S
C497        C498   1.419       .  A
C497       Br502   1.860       .  S
C498        C499   1.439       .  A
C499       Br500   1.897       .  S
Br503      C1260   1.918       .  S
C504        C505   1.467       .  A
C504        C509   1.458       .  A
C504       Br511   1.893       .  S
C505        C506   1.462       .  A
C506        C507   1.457       .  A
C506       Br513   1.942       .  S
C507        C508   1.442       .  A
C507       Br512   1.950       .  S
C508        C509   1.411       .  A
C509       Br510   1.934       .  S
C514        C515   1.457       .  A
C514        C519   1.448       .  A
C514       Br521   1.915       .  S
C515        C516   1.472       .  A
C516        C517   1.471       .  A
C516       Br523   1.893       .  S
C517        C518   1.419       .  A
C517      Br1286   1.937       .  S
C518        C519   1.434       .  A
C519       Br520   1.942       .  S
Br522      C1281   1.937       .  S
C524        C525   1.454       .  A
C524        C529   1.452       .  A
C524       Br531   1.935       .  S
C525        C526   1.439       .  A
C526        C527   1.463       .  A
C526       Br533   1.907       .  S
C527        C528   1.452       .  A
C527       Br532   1.897       .  S
C528        C529   1.451       .  A
C529       Br530   1.941       .  S
C534        C535   1.390       .  A
C534        C539   1.389       .  A
C534       Br541   1.915       .  S
C535        C536   1.384       .  A
C536        C537   1.372       .  A
C536       Br734   1.948       .  S
C537        C538   1.472       .  A
C537       Br542   1.968       .  S
C538        C539   1.432       .  A
C539       Br540   1.915       .  S
Br543       C727   1.948   1_554  S
C544        C545   1.399       .  A
C544        C549   1.383       .  A
C544       Br551   1.902       .  S
C545        C546   1.451       .  A
C546        C547   1.383       .  A
C546       Br553   1.923       .  S
C547        C548   1.409       .  A
C547       Br552   1.979       .  S
C548        C549   1.398       .  A
C554        C555   1.458       .  A
C554        C559   1.381       .  A
C554       Br561   1.936       .  S
C555        C556   1.434       .  A
C556        C557   1.418       .  A
C556       Br563   1.928       .  S
C557        C558   1.404       .  A
C558        C559   1.385       .  A
C559       Br560   1.962       .  S
C564        C565   1.443       .  A
C564        C569   1.417       .  A
C564       Br571   1.923       .  S
C565        C566   1.454       .  A
C566        C567   1.384       .  A
C566       Br573   1.963       .  S
C567        C568   1.412       .  A
C567       Br572   1.914       .  S
C568        C569   1.416       .  A
C569       Br570   1.899       .  S
C574        C729   1.537       .  S
C574        C736   1.579       .  S
C574        C746   1.612       .  S
C574        C759   1.576       .  S
C575        C689   1.663       .  S
C575        C696   1.708       .  S
C575        C706   1.725       .  S
C575        C716   1.700       .  S
C576        C656   1.580       .  S
C576        C666   1.567       .  S
C576        C676   1.590       .  S
C576        C756   1.598       .  S
C577        C629   1.698       .  S
C577        C639   1.735       .  S
C577        C649   1.748       .  S
C577        C719   1.711       .  S
O578        C605   1.237       .  A
C579        O612   1.264       .  A
C579        O609   1.258       .  A
C579        C679   1.441       .  S
O580       Mn604   2.121       .  S
O581        C591   1.267       .  A
O582        C605   1.256       .  A
O583        C610   1.303       .  A
O583       Mn602   2.338       .  S
O584       Mn615   1.972       .  S
O584      Mn1368   1.973       .  S
C585        O588   1.294       .  A
C585        C626   1.584       .  S
C585        O611   1.221       .  S
O586       Mn606   2.144   1_455  S
O586       Mn587   2.200       .  S
O586       Mn620   2.129       .  S
Mn587      O1380   2.326   1_455  S
Mn587       O592   2.317       .  S
Mn587      O1001   2.304   1_455  S
Mn587       O975   2.221   1_455  S
O588      Mn1366   2.274       .  S
O589        C591   1.255       .  A
C590        O616   1.299       .  A
C590        C686   1.604       .  S
C590        O603   1.209       .  S
C591        C749   1.451       .  S
O592        C617   1.298       .  A
O593       Mn969   2.221   1_565  S
O593       Mn615   2.124       .  S
O593       Mn793   2.230   1_565  S
O594       Mn598   1.914       .  S
O594       Mn620   1.912       .  S
O594        C617   1.207       .  S
C595        O621   1.243       .  A
C595        O597   1.261       .  A
C595        C726   1.401       .  S
Mn596       O603   1.915       .  S
O599        C601   1.264       .  A
O599       Mn604   2.063       .  S
C600        O618   1.301       .  A
C600        C646   1.629       .  S
C601        O614   1.257       .  A
C601        C669   1.482       .  S
Mn602      O1352   2.274   1_455  S
Mn602      O1000   2.318   1_455  S
Mn602       O784   2.230   1_456  S
O603      Mn1370   1.896       .  S
Mn604      O1348   1.973   1_455  S
Mn604      O1386   1.914   1_455  S
C605        C739   1.442       .  S
Mn606       O613   2.069   1_655  S
Mn606      O1367   1.896       .  S
Mn606      O1184   1.937       .  S
C607        O613   1.253       .  A
C607        O623   1.255       .  A
C607        C659   1.445       .  S
O608        C610   1.221       .  S
C610        C636   1.641       .  S
O611      Mn1179   1.937   1_556  S
O612       Mn615   2.072       .  S
Mn615       O622   1.942       .  S
O616      Mn1351   2.326       .  S
C617        C699   1.598       .  S
O618       Mn984   2.318   1_565  S
O619        C624   1.297       .  A
O619       Mn969   2.304   1_565  S
Mn620       O623   2.018       .  S
O622      Mn1368   1.914       .  S
O622        C624   1.213       .  S
C624        C709   1.606       .  S
C625        C626   1.427       .  A
C625        C630   1.424       .  A
C625       Br632   1.926   1_556  S
C626        C627   1.422       .  A
C627        C628   1.467       .  A
C627      Br1398   1.924       .  S
C628        C629   1.476       .  A
C628       Br633   1.911       .  S
C629        C630   1.427       .  A
C630       Br631   1.877       .  S
Br634      C1391   1.924       .  S
C635        C636   1.430       .  A
C635        C640   1.477       .  A
C635       Br642   1.936       .  S
C636        C637   1.444       .  A
C637        C638   1.469       .  A
C638        C639   1.460       .  A
C638       Br643   1.939       .  S
C639        C640   1.470       .  A
C640       Br641   1.901       .  S
C645        C646   1.402       .  A
C645        C650   1.460       .  A
C645       Br652   1.909       .  S
C646        C647   1.428       .  A
C647        C648   1.494       .  A
C647      Br1418   1.929       .  S
C648        C649   1.463       .  A
C648       Br653   1.870       .  S
C649        C650   1.445       .  A
C650       Br651   1.834       .  S
Br654      C1411   1.929   1_455  S
C655        C656   1.437       .  A
C655        C660   1.364       .  A
C655       Br662   1.916       .  S
C656        C657   1.425       .  A
C657        C658   1.415       .  A
C657       Br664   1.913       .  S
C658        C659   1.407       .  A
C658       Br663   1.916       .  S
C659        C660   1.386       .  A
C660       Br661   1.944       .  S
C665        C666   1.402       .  A
C665        C670   1.397       .  A
C665       Br672   1.871       .  S
C666        C667   1.421       .  A
C667        C668   1.390       .  A
C667       Br674   1.933       .  S
C668        C669   1.415       .  A
C668       Br673   1.905       .  S
C669        C670   1.410       .  A
C670       Br671   1.929       .  S
C675        C676   1.437       .  A
C675        C680   1.412       .  A
C675       Br682   1.915       .  S
C676        C677   1.458       .  A
C677        C678   1.377       .  A
C677       Br684   1.932       .  S
C678        C679   1.378       .  A
C678       Br683   1.951       .  S
C679        C680   1.401       .  A
C680       Br681   1.918       .  S
C685        C686   1.433       .  A
C685        C690   1.466       .  A
C685       Br692   1.897       .  S
C686        C687   1.434       .  A
C687        C688   1.428       .  A
C687      Br1458   1.918       .  S
C688        C689   1.419       .  A
C688       Br693   1.860       .  S
C689        C690   1.439       .  A
C690       Br691   1.897       .  S
Br694      C1451   1.918       .  S
C695        C696   1.467       .  A
C695        C700   1.458       .  A
C695       Br702   1.893       .  S
C696        C697   1.462       .  A
C697        C698   1.457       .  A
C697       Br704   1.942       .  S
C698        C699   1.442       .  A
C698       Br703   1.950       .  S
C699        C700   1.411       .  A
C700       Br701   1.934       .  S
C705        C706   1.457       .  A
C705        C710   1.448       .  A
C705       Br712   1.915       .  S
C706        C707   1.472       .  A
C707        C708   1.471       .  A
C707       Br714   1.893       .  S
C708        C709   1.419       .  A
C708      Br1477   1.937       .  S
C709        C710   1.434       .  A
C710       Br711   1.942       .  S
Br713      C1472   1.937       .  S
C715        C716   1.454       .  A
C715        C720   1.453       .  A
C715       Br722   1.935       .  S
C716        C717   1.439       .  A
C717        C718   1.463       .  A
C717       Br724   1.907       .  S
C718        C719   1.452       .  A
C718       Br723   1.897       .  S
C719        C720   1.451       .  A
C720       Br721   1.941       .  S
C725        C726   1.390       .  A
C725        C730   1.389       .  A
C725       Br732   1.915       .  S
C726        C727   1.383       .  A
C727        C728   1.372       .  A
C728        C729   1.472       .  A
C728       Br733   1.968       .  S
C729        C730   1.432       .  A
C730       Br731   1.915       .  S
C735        C736   1.399       .  A
C735        C740   1.383       .  A
C735       Br742   1.902       .  S
C736        C737   1.451       .  A
C737        C738   1.383       .  A
C737       Br744   1.924       .  S
C738        C739   1.409       .  A
C738       Br743   1.979       .  S
C739        C740   1.397       .  A
C745        C746   1.458       .  A
C745        C750   1.381       .  A
C745       Br752   1.936       .  S
C746        C747   1.433       .  A
C747        C748   1.418       .  A
C747       Br754   1.928       .  S
C748        C749   1.404       .  A
C749        C750   1.385       .  A
C750       Br751   1.962   1_556  S
C755        C756   1.443       .  A
C755        C760   1.417       .  A
C755       Br762   1.923       .  S
C756        C757   1.454       .  A
C757        C758   1.384       .  A
C757       Br764   1.963       .  S
C758        C759   1.412       .  A
C758       Br763   1.914       .  S
C759        C760   1.416       .  A
C760       Br761   1.899       .  S
C765        C920   1.538       .  S
C765        C927   1.579       .  S
C765        C937   1.612       .  S
C765        C950   1.576       .  S
C766        C880   1.663       .  S
C766        C887   1.708       .  S
C766        C897   1.725       .  S
C766        C907   1.700       .  S
C767        C847   1.580       .  S
C767        C857   1.567       .  S
C767        C867   1.590       .  S
C767        C947   1.598       .  S
C768        C820   1.698       .  S
C768        C830   1.736       .  S
C768        C840   1.748       .  S
C768        C910   1.710       .  S
O769        C796   1.237       .  A
O769       Mn986   1.952       .  S
C770        O803   1.263       .  A
C770        O800   1.258       .  A
C770        C870   1.441       .  S
O771      Mn1160   2.210       .  S
O771      Mn1171   2.160       .  S
O771      Mn1366   2.190   1_554  S
O771       Mn795   2.121       .  S
O772        C782   1.267       .  A
O772       Mn997   2.050       .  S
O773        C796   1.256       .  A
O773      Mn1362   2.025       .  S
O774        C801   1.303       .  A
O774       Mn793   2.338       .  S
O775       Mn806   1.972   1_556  S
O775        C982   1.234       .  S
C776        O779   1.294       .  A
C776        C817   1.584       .  S
C776        O802   1.221       .  S
O777       Mn797   2.144       .  S
O777       Mn778   2.200       .  S
O777       Mn811   2.129       .  S
O777       Mn984   2.196   1_554  S
Mn778       O783   2.317       .  S
Mn778      O1153   2.210   1_545  S
O780        C782   1.255       .  A
O780      Mn1360   2.050       .  S
C781        O807   1.299       .  A
C781        C877   1.604       .  S
C781        O794   1.209       .  S
C782        C940   1.450       .  S
O783        C808   1.298       .  A
O784      Mn1169   2.165       .  S
O784       Mn806   2.124       .  S
O785       Mn789   1.914       .  S
O785       Mn811   1.912       .  S
O785        C808   1.207       .  S
C786        O812   1.243       .  A
C786        O788   1.262       .  A
C786        C917   1.401       .  S
Mn787      O1353   2.050   1_544  S
Mn787      O1182   2.036   1_545  S
Mn787      O1166   2.165   1_545  S
Mn787       O993   1.937   1_554  S
Mn787       O794   1.915       .  S
O788      Mn1002   2.056       .  S
Mn789      O1346   2.025   1_544  S
Mn789      O1187   2.053   1_545  S
Mn789      O1153   2.160   1_545  S
Mn789       O990   1.982   1_554  S
O790        C792   1.264       .  A
O790       Mn795   2.063       .  S
C791        O809   1.301       .  A
C791        C837   1.629       .  S
C791        O966   1.234       .  S
C792        O805   1.257       .  A
C792        C860   1.482       .  S
Mn793      O1344   2.190   1_545  S
Mn793       O968   2.197       .  S
Mn795       O960   1.952   1_554  S
C796        C930   1.442       .  S
Mn797       O804   2.069       .  S
Mn797      O1003   1.959   1_554  S
C798        O804   1.253       .  A
C798        O814   1.255       .  A
C798        C850   1.445       .  S
O799       Mn980   1.982       .  S
O799      Mn1002   1.953       .  S
O799        C801   1.221       .  S
O800      Mn1169   2.036       .  S
C801        C827   1.641       .  S
O802       Mn978   1.937       .  S
O803       Mn806   2.072       .  S
O805      Mn1171   2.053       .  S
Mn806       O963   2.050   1_554  S
Mn806       O813   1.942       .  S
C808        C890   1.598       .  S
O810        C815   1.297       .  A
Mn811       O979   2.056   1_554  S
Mn811       O814   2.019       .  S
Mn811       O990   1.953   1_554  S
O812       Mn988   1.959       .  S
O813        C815   1.213       .  S
C815        C900   1.605       .  S
C816        C817   1.428       .  A
C816        C821   1.424       .  A
C816       Br823   1.925       .  S
C817        C818   1.422       .  A
C818        C819   1.467       .  A
C819        C820   1.476       .  A
C819       Br824   1.911       .  S
C820        C821   1.427       .  A
C821       Br822   1.877       .  S
C826        C827   1.430       .  A
C826        C831   1.477       .  A
C826       Br833   1.936       .  S
C827        C828   1.444       .  A
C828        C829   1.469       .  A
C828      Br1026   1.927       .  S
C829        C830   1.460       .  A
C829       Br834   1.939       .  S
C830        C831   1.470       .  A
C831       Br832   1.901       .  S
Br835      C1019   1.926   1_554  S
C836        C837   1.402       .  A
C836        C841   1.460       .  A
C836       Br843   1.909       .  S
C837        C838   1.428       .  A
C838        C839   1.494       .  A
C839        C840   1.463       .  A
C839       Br844   1.870       .  S
C840        C841   1.445       .  A
C841       Br842   1.835       .  S
C846        C847   1.437       .  A
C846        C851   1.364       .  A
C846       Br853   1.916       .  S
C847        C848   1.425       .  A
C848        C849   1.415       .  A
C848       Br855   1.913       .  S
C849        C850   1.407       .  A
C849       Br854   1.916       .  S
C850        C851   1.386       .  A
C851       Br852   1.944       .  S
C856        C857   1.402       .  A
C856        C861   1.397       .  A
C856       Br863   1.871       .  S
C857        C858   1.421       .  A
C858        C859   1.390       .  A
C858       Br865   1.933       .  S
C859        C860   1.415       .  A
C859       Br864   1.905       .  S
C860        C861   1.410       .  A
C861       Br862   1.928       .  S
C866        C867   1.437       .  A
C866        C871   1.412       .  A
C866       Br873   1.915       .  S
C867        C868   1.458       .  A
C868        C869   1.377       .  A
C868       Br875   1.932       .  S
C869        C870   1.378       .  A
C869       Br874   1.952       .  S
C870        C871   1.401       .  A
C871       Br872   1.918       .  S
C876        C877   1.433       .  A
C876        C881   1.466       .  A
C876       Br883   1.897       .  S
C877        C878   1.434       .  A
C878        C879   1.428       .  A
C879        C880   1.419       .  A
C879       Br884   1.860       .  S
C880        C881   1.439       .  A
C881       Br882   1.897       .  S
C886        C887   1.467       .  A
C886        C891   1.458       .  A
C886       Br893   1.893       .  S
C887        C888   1.462       .  A
C888        C889   1.457       .  A
C888       Br895   1.942       .  S
C889        C890   1.442       .  A
C889       Br894   1.950       .  S
C890        C891   1.411       .  A
C891       Br892   1.934       .  S
C896        C897   1.457       .  A
C896        C901   1.448       .  A
C896       Br903   1.915       .  S
C897        C898   1.472       .  A
C898        C899   1.471       .  A
C898       Br905   1.893       .  S
C899        C900   1.419       .  A
C900        C901   1.434       .  A
C901       Br902   1.942       .  S
C906        C907   1.454       .  A
C906        C911   1.452       .  A
C906       Br913   1.935       .  S
C907        C908   1.439       .  A
C908        C909   1.463       .  A
C908       Br915   1.907       .  S
C909        C910   1.452       .  A
C909       Br914   1.897       .  S
C910        C911   1.451       .  A
C911       Br912   1.941       .  S
C916        C917   1.390       .  A
C916        C921   1.389       .  A
C916       Br923   1.915       .  S
C917        C918   1.384       .  A
C918        C919   1.372       .  A
C918      Br1116   1.948       .  S
C919        C920   1.472       .  A
C919       Br924   1.968       .  S
C920        C921   1.432       .  A
C921       Br922   1.915       .  S
Br925      C1109   1.948   1_554  S
C926        C927   1.399       .  A
C926        C931   1.383       .  A
C926       Br933   1.902       .  S
C927        C928   1.451       .  A
C928        C929   1.383       .  A
C928       Br935   1.923       .  S
C929        C930   1.409       .  A
C929       Br934   1.979       .  S
C930        C931   1.398       .  A
C931      Br1314   1.881       .  S
Br932      C1313   1.881       .  S
C936        C937   1.458       .  A
C936        C941   1.381       .  A
C936       Br943   1.936       .  S
C937        C938   1.434       .  A
C938        C939   1.418       .  A
C938       Br945   1.928       .  S
C939        C940   1.404       .  A
C939      Br1326   1.924       .  S
C940        C941   1.385       .  A
C941       Br942   1.962       .  S
Br944      C1321   1.924       .  S
C946        C947   1.443       .  A
C946        C951   1.417       .  A
C946       Br953   1.923       .  S
C947        C948   1.454       .  A
C948        C949   1.384       .  A
C948       Br955   1.963       .  S
C949        C950   1.412       .  A
C949       Br954   1.914       .  S
C950        C951   1.416       .  A
C951       Br952   1.899       .  S
C956       C1111   1.537       .  S
C956       C1118   1.579       .  S
C956       C1128   1.612       .  S
C956       C1141   1.576       .  S
C957       C1071   1.663       .  S
C957       C1078   1.708       .  S
C957       C1088   1.725       .  S
C957       C1098   1.700       .  S
C958       C1038   1.580       .  S
C958       C1048   1.567       .  S
C958       C1058   1.590       .  S
C958       C1138   1.598       .  S
C959       C1011   1.698       .  S
C959       C1021   1.735       .  S
C959       C1031   1.748       .  S
C959       C1101   1.711       .  S
O960        C987   1.237       .  A
C961        O994   1.264       .  A
C961        O991   1.258       .  A
C961       C1061   1.441       .  S
O962      Mn1351   2.209       .  S
O962      Mn1362   2.160       .  S
O962      Mn1175   2.190       .  S
O962       Mn986   2.121       .  S
O963        C973   1.267       .  A
O964        C987   1.256       .  A
O964      Mn1171   2.025   1_556  S
O965        C992   1.303       .  A
O965       Mn984   2.338       .  S
O966       Mn997   1.972       .  S
C967        O970   1.294       .  A
C967       C1008   1.584       .  S
C967        O993   1.221       .  S
O968       Mn988   2.144       .  S
O968       Mn969   2.200       .  S
O968      Mn1002   2.129       .  S
Mn969       O974   2.317       .  S
Mn969      O1344   2.209   1_545  S
O971        C973   1.255       .  A
O971      Mn1169   2.050   1_556  S
C972        O998   1.299       .  A
C972       C1068   1.604       .  S
C972        O985   1.209       .  S
C973       C1131   1.451       .  S
O974        C999   1.298       .  A
O975      Mn1360   2.165       .  S
O975       Mn997   2.124       .  S
O976       Mn980   1.914       .  S
O976      Mn1002   1.912       .  S
O976        C999   1.207       .  S
C977       O1003   1.243       .  A
C977        O979   1.261       .  A
C977       C1108   1.401       .  S
Mn978      O1162   2.050   1_545  S
Mn978      O1373   2.036   1_545  S
Mn978      O1357   2.165   1_545  S
Mn978       O985   1.915       .  S
Mn980      O1155   2.025   1_545  S
Mn980      O1378   2.053   1_545  S
Mn980      O1344   2.160   1_545  S
O981        C983   1.264       .  A
O981       Mn986   2.063       .  S
C982       O1000   1.301       .  A
C982       C1028   1.629       .  S
C983        O996   1.257       .  A
C983       C1051   1.482       .  S
Mn984      O1153   2.190   1_546  S
C987       C1121   1.442       .  S
Mn988       O995   2.069       .  S
C989        O995   1.253       .  A
C989       O1005   1.255       .  A
C989       C1041   1.445       .  S
O990        C992   1.221       .  S
O991      Mn1360   2.036       .  S
C992       C1018   1.641       .  S
O994       Mn997   2.072       .  S
O996      Mn1362   2.053       .  S
Mn997      O1004   1.942       .  S
C999       C1081   1.598       .  S
O1001      C1006   1.297       .  A
Mn1002     O1005   2.018       .  S
O1004      C1006   1.213       .  S
C1006      C1091   1.606       .  S
C1007      C1008   1.427       .  A
C1007      C1012   1.424       .  A
C1007     Br1014   1.926   1_556  S
C1008      C1009   1.422       .  A
C1009      C1010   1.467       .  A
C1010      C1011   1.476       .  A
C1010     Br1015   1.911       .  S
C1011      C1012   1.427       .  A
C1012     Br1013   1.877       .  S
C1017      C1018   1.430       .  A
C1017      C1022   1.477       .  A
C1017     Br1024   1.936       .  S
C1018      C1019   1.444       .  A
C1019      C1020   1.469       .  A
C1020      C1021   1.460       .  A
C1020     Br1025   1.939       .  S
C1021      C1022   1.470       .  A
C1022     Br1023   1.901       .  S
C1027      C1028   1.402       .  A
C1027      C1032   1.460       .  A
C1027     Br1034   1.909       .  S
C1028      C1029   1.428       .  A
C1029      C1030   1.494       .  A
C1030      C1031   1.463       .  A
C1030     Br1035   1.870       .  S
C1031      C1032   1.445       .  A
C1032     Br1033   1.834       .  S
C1037      C1038   1.437       .  A
C1037      C1042   1.364       .  A
C1037     Br1044   1.916       .  S
C1038      C1039   1.425       .  A
C1039      C1040   1.415       .  A
C1039     Br1046   1.913       .  S
C1040      C1041   1.407       .  A
C1040     Br1045   1.916       .  S
C1041      C1042   1.386       .  A
C1042     Br1043   1.944       .  S
C1047      C1048   1.402       .  A
C1047      C1052   1.397       .  A
C1047     Br1054   1.871       .  S
C1048      C1049   1.421       .  A
C1049      C1050   1.390       .  A
C1049     Br1056   1.933       .  S
C1050      C1051   1.415       .  A
C1050     Br1055   1.905       .  S
C1051      C1052   1.410       .  A
C1052     Br1053   1.929       .  S
C1057      C1058   1.437       .  A
C1057      C1062   1.412       .  A
C1057     Br1064   1.915       .  S
C1058      C1059   1.458       .  A
C1059      C1060   1.377       .  A
C1059     Br1066   1.932       .  S
C1060      C1061   1.378       .  A
C1060     Br1065   1.951       .  S
C1061      C1062   1.401       .  A
C1062     Br1063   1.918       .  S
C1067      C1068   1.433       .  A
C1067      C1072   1.466       .  A
C1067     Br1074   1.897       .  S
C1068      C1069   1.434       .  A
C1069      C1070   1.428       .  A
C1070      C1071   1.419       .  A
C1070     Br1075   1.860       .  S
C1071      C1072   1.439       .  A
C1072     Br1073   1.897       .  S
C1077      C1078   1.467       .  A
C1077      C1082   1.458       .  A
C1077     Br1084   1.893       .  S
C1078      C1079   1.462       .  A
C1079      C1080   1.457       .  A
C1079     Br1086   1.942       .  S
C1080      C1081   1.442       .  A
C1080     Br1085   1.950       .  S
C1081      C1082   1.411       .  A
C1082     Br1083   1.934       .  S
C1087      C1088   1.457       .  A
C1087      C1092   1.448       .  A
C1087     Br1094   1.915       .  S
C1088      C1089   1.472       .  A
C1089      C1090   1.471       .  A
C1089     Br1096   1.893       .  S
C1090      C1091   1.419       .  A
C1091      C1092   1.434       .  A
C1092     Br1093   1.942       .  S
C1097      C1098   1.454       .  A
C1097      C1102   1.453       .  A
C1097     Br1104   1.935       .  S
C1098      C1099   1.439       .  A
C1099      C1100   1.463       .  A
C1099     Br1106   1.907       .  S
C1100      C1101   1.452       .  A
C1100     Br1105   1.897       .  S
C1101      C1102   1.451       .  A
C1102     Br1103   1.941       .  S
C1107      C1108   1.390       .  A
C1107      C1112   1.389       .  A
C1107     Br1114   1.915       .  S
C1108      C1109   1.383       .  A
C1109      C1110   1.372       .  A
C1110      C1111   1.472       .  A
C1110     Br1115   1.968       .  S
C1111      C1112   1.432       .  A
C1112     Br1113   1.915       .  S
C1117      C1118   1.399       .  A
C1117      C1122   1.383       .  A
C1117     Br1124   1.902       .  S
C1118      C1119   1.451       .  A
C1119      C1120   1.383       .  A
C1119     Br1126   1.924       .  S
C1120      C1121   1.409       .  A
C1120     Br1125   1.979       .  S
C1121      C1122   1.397       .  A
C1122     Br1505   1.880       .  S
Br1123     C1504   1.880       .  S
C1127      C1128   1.458       .  A
C1127      C1132   1.381       .  A
C1127     Br1134   1.936       .  S
C1128      C1129   1.433       .  A
C1129      C1130   1.418       .  A
C1129     Br1136   1.928       .  S
C1130      C1131   1.404       .  A
C1130     Br1517   1.924       .  S
C1131      C1132   1.385       .  A
C1132     Br1133   1.962   1_556  S
Br1135     C1512   1.924       .  S
C1137      C1138   1.443       .  A
C1137      C1142   1.417       .  A
C1137     Br1144   1.923       .  S
C1138      C1139   1.454       .  A
C1139      C1140   1.384       .  A
C1139     Br1146   1.963       .  S
C1140      C1141   1.412       .  A
C1140     Br1145   1.914       .  S
C1141      C1142   1.416       .  A
C1142     Br1143   1.899       .  S
C1147      C1302   1.538       .  S
C1147      C1309   1.579       .  S
C1147      C1319   1.612       .  S
C1147      C1332   1.576       .  S
C1148      C1262   1.663       .  S
C1148      C1269   1.708       .  S
C1148      C1279   1.725       .  S
C1148      C1289   1.700       .  S
C1149      C1229   1.580       .  S
C1149      C1239   1.567       .  S
C1149      C1249   1.590       .  S
C1149      C1329   1.598       .  S
C1150      C1202   1.698       .  S
C1150      C1212   1.736       .  S
C1150      C1222   1.748       .  S
C1150      C1292   1.710       .  S
O1151      C1178   1.237       .  A
O1151     Mn1368   1.952       .  S
C1152      O1185   1.263       .  A
C1152      O1182   1.258       .  A
C1152      C1252   1.441       .  S
O1153     Mn1177   2.121       .  S
O1154      C1164   1.267       .  A
O1154     Mn1379   2.050       .  S
O1155      C1178   1.256       .  A
O1156      C1183   1.303       .  A
O1156     Mn1175   2.338       .  S
O1157     Mn1188   1.972   1_556  S
O1157      C1364   1.234       .  S
C1158      O1161   1.294       .  A
C1158      C1199   1.584       .  S
C1158      O1184   1.221       .  S
O1159     Mn1179   2.144       .  S
O1159     Mn1160   2.200       .  S
O1159     Mn1193   2.129       .  S
O1159     Mn1366   2.196   1_554  S
Mn1160     O1165   2.317       .  S
O1162      C1164   1.255       .  A
C1163      O1189   1.299       .  A
C1163      C1259   1.604       .  S
C1163      O1176   1.209       .  S
C1164      C1322   1.450       .  S
O1165      C1190   1.298       .  A
O1166     Mn1188   2.124       .  S
O1167     Mn1171   1.914       .  S
O1167     Mn1193   1.912       .  S
O1167      C1190   1.207       .  S
C1168      O1194   1.243       .  A
C1168      O1170   1.262       .  A
C1168      C1299   1.401       .  S
Mn1169     O1375   1.937   1_554  S
Mn1169     O1176   1.915       .  S
O1170     Mn1384   2.056       .  S
Mn1171     O1372   1.982   1_554  S
O1172      C1174   1.264       .  A
O1172     Mn1177   2.063       .  S
C1173      O1191   1.301       .  A
C1173      C1219   1.629       .  S
C1173      O1348   1.234       .  S
C1174      O1187   1.257       .  A
C1174      C1242   1.482       .  S
Mn1175     O1350   2.197       .  S
Mn1177     O1342   1.952   1_554  S
C1178      C1312   1.442       .  S
Mn1179     O1186   2.069       .  S
Mn1179     O1385   1.959   1_554  S
C1180      O1186   1.253       .  A
C1180      O1196   1.255       .  A
C1180      C1232   1.445       .  S
O1181     Mn1362   1.982       .  S
O1181     Mn1384   1.953       .  S
O1181      C1183   1.221       .  S
C1183      C1209   1.641       .  S
O1184     Mn1360   1.937       .  S
O1185     Mn1188   2.072       .  S
Mn1188     O1345   2.050   1_554  S
Mn1188     O1195   1.942       .  S
C1190      C1272   1.598       .  S
O1192      C1197   1.297       .  A
Mn1193     O1361   2.056   1_554  S
Mn1193     O1196   2.019       .  S
Mn1193     O1372   1.953   1_554  S
O1194     Mn1370   1.959       .  S
O1195      C1197   1.213       .  S
C1197      C1282   1.605       .  S
C1198      C1199   1.428       .  A
C1198      C1203   1.424       .  A
C1198     Br1205   1.925       .  S
C1199      C1200   1.422       .  A
C1200      C1201   1.467       .  A
C1201      C1202   1.476       .  A
C1201     Br1206   1.911       .  S
C1202      C1203   1.427       .  A
C1203     Br1204   1.877       .  S
C1208      C1209   1.430       .  A
C1208      C1213   1.477       .  A
C1208     Br1215   1.936       .  S
C1209      C1210   1.444       .  A
C1210      C1211   1.469       .  A
C1210     Br1408   1.927       .  S
C1211      C1212   1.460       .  A
C1211     Br1216   1.939       .  S
C1212      C1213   1.470       .  A
C1213     Br1214   1.901       .  S
Br1217     C1401   1.926   1_554  S
C1218      C1219   1.402       .  A
C1218      C1223   1.460       .  A
C1218     Br1225   1.909       .  S
C1219      C1220   1.428       .  A
C1220      C1221   1.494       .  A
C1221      C1222   1.463       .  A
C1221     Br1226   1.870       .  S
C1222      C1223   1.445       .  A
C1223     Br1224   1.835       .  S
C1228      C1229   1.437       .  A
C1228      C1233   1.364       .  A
C1228     Br1235   1.916       .  S
C1229      C1230   1.425       .  A
C1230      C1231   1.415       .  A
C1230     Br1237   1.913       .  S
C1231      C1232   1.407       .  A
C1231     Br1236   1.916       .  S
C1232      C1233   1.386       .  A
C1233     Br1234   1.944       .  S
C1238      C1239   1.402       .  A
C1238      C1243   1.397       .  A
C1238     Br1245   1.871       .  S
C1239      C1240   1.421       .  A
C1240      C1241   1.390       .  A
C1240     Br1247   1.933       .  S
C1241      C1242   1.415       .  A
C1241     Br1246   1.905       .  S
C1242      C1243   1.410       .  A
C1243     Br1244   1.928       .  S
C1248      C1249   1.437       .  A
C1248      C1253   1.412       .  A
C1248     Br1255   1.915       .  S
C1249      C1250   1.458       .  A
C1250      C1251   1.377       .  A
C1250     Br1257   1.932       .  S
C1251      C1252   1.378       .  A
C1251     Br1256   1.952       .  S
C1252      C1253   1.401       .  A
C1253     Br1254   1.918       .  S
C1258      C1259   1.433       .  A
C1258      C1263   1.466       .  A
C1258     Br1265   1.897       .  S
C1259      C1260   1.434       .  A
C1260      C1261   1.428       .  A
C1261      C1262   1.419       .  A
C1261     Br1266   1.860       .  S
C1262      C1263   1.439       .  A
C1263     Br1264   1.897       .  S
C1268      C1269   1.467       .  A
C1268      C1273   1.458       .  A
C1268     Br1275   1.893       .  S
C1269      C1270   1.462       .  A
C1270      C1271   1.457       .  A
C1270     Br1277   1.942       .  S
C1271      C1272   1.442       .  A
C1271     Br1276   1.950       .  S
C1272      C1273   1.411       .  A
C1273     Br1274   1.934       .  S
C1278      C1279   1.457       .  A
C1278      C1283   1.448       .  A
C1278     Br1285   1.915       .  S
C1279      C1280   1.472       .  A
C1280      C1281   1.471       .  A
C1280     Br1287   1.893       .  S
C1281      C1282   1.419       .  A
C1282      C1283   1.434       .  A
C1283     Br1284   1.942       .  S
C1288      C1289   1.454       .  A
C1288      C1293   1.452       .  A
C1288     Br1295   1.935       .  S
C1289      C1290   1.439       .  A
C1290      C1291   1.463       .  A
C1290     Br1297   1.907       .  S
C1291      C1292   1.452       .  A
C1291     Br1296   1.897       .  S
C1292      C1293   1.451       .  A
C1293     Br1294   1.941       .  S
C1298      C1299   1.390       .  A
C1298      C1303   1.389       .  A
C1298     Br1305   1.915       .  S
C1299      C1300   1.384       .  A
C1300      C1301   1.372       .  A
C1300     Br1498   1.948       .  S
C1301      C1302   1.472       .  A
C1301     Br1306   1.968       .  S
C1302      C1303   1.432       .  A
C1303     Br1304   1.915       .  S
Br1307     C1491   1.948   1_554  S
C1308      C1309   1.399       .  A
C1308      C1313   1.383       .  A
C1308     Br1315   1.902       .  S
C1309      C1310   1.451       .  A
C1310      C1311   1.383       .  A
C1310     Br1317   1.923       .  S
C1311      C1312   1.409       .  A
C1311     Br1316   1.979       .  S
C1312      C1313   1.398       .  A
C1318      C1319   1.458       .  A
C1318      C1323   1.381       .  A
C1318     Br1325   1.936       .  S
C1319      C1320   1.434       .  A
C1320      C1321   1.418       .  A
C1320     Br1327   1.928       .  S
C1321      C1322   1.404       .  A
C1322      C1323   1.385       .  A
C1323     Br1324   1.962       .  S
C1328      C1329   1.443       .  A
C1328      C1333   1.417       .  A
C1328     Br1335   1.923       .  S
C1329      C1330   1.454       .  A
C1330      C1331   1.384       .  A
C1330     Br1337   1.963       .  S
C1331      C1332   1.412       .  A
C1331     Br1336   1.914       .  S
C1332      C1333   1.416       .  A
C1333     Br1334   1.899       .  S
C1338      C1493   1.537       .  S
C1338      C1500   1.579       .  S
C1338      C1510   1.612       .  S
C1338      C1523   1.576       .  S
C1339      C1453   1.663       .  S
C1339      C1460   1.708       .  S
C1339      C1470   1.725       .  S
C1339      C1480   1.700       .  S
C1340      C1420   1.580       .  S
C1340      C1430   1.567       .  S
C1340      C1440   1.590       .  S
C1340      C1520   1.598       .  S
C1341      C1393   1.698       .  S
C1341      C1403   1.735       .  S
C1341      C1413   1.748       .  S
C1341      C1483   1.711       .  S
O1342      C1369   1.237       .  A
C1343      O1376   1.264       .  A
C1343      O1373   1.258       .  A
C1343      C1443   1.441       .  S
O1344     Mn1368   2.121       .  S
O1345      C1355   1.267       .  A
O1346      C1369   1.256       .  A
O1347      C1374   1.303       .  A
O1347     Mn1366   2.338       .  S
O1348     Mn1379   1.972       .  S
C1349      O1352   1.294       .  A
C1349      C1390   1.584       .  S
C1349      O1375   1.221       .  S
O1350     Mn1370   2.144       .  S
O1350     Mn1351   2.200       .  S
O1350     Mn1384   2.129       .  S
Mn1351     O1356   2.317       .  S
O1353      C1355   1.255       .  A
C1354      O1380   1.299       .  A
C1354      C1450   1.604       .  S
C1354      O1367   1.209       .  S
C1355      C1513   1.451       .  S
O1356      C1381   1.298       .  A
O1357     Mn1379   2.124       .  S
O1358     Mn1362   1.914       .  S
O1358     Mn1384   1.912       .  S
O1358      C1381   1.207       .  S
C1359      O1385   1.243       .  A
C1359      O1361   1.261       .  A
C1359      C1490   1.401       .  S
Mn1360     O1367   1.915       .  S
O1363      C1365   1.264       .  A
O1363     Mn1368   2.063       .  S
C1364      O1382   1.301       .  A
C1364      C1410   1.629       .  S
C1365      O1378   1.257       .  A
C1365      C1433   1.482       .  S
C1369      C1503   1.442       .  S
Mn1370     O1377   2.069       .  S
C1371      O1377   1.253       .  A
C1371      O1387   1.255       .  A
C1371      C1423   1.445       .  S
O1372      C1374   1.221       .  S
C1374      C1400   1.641       .  S
O1376     Mn1379   2.072       .  S
Mn1379     O1386   1.942       .  S
C1381      C1463   1.598       .  S
O1383      C1388   1.297       .  A
Mn1384     O1387   2.018       .  S
O1386      C1388   1.213       .  S
C1388      C1473   1.606       .  S
C1389      C1390   1.427       .  A
C1389      C1394   1.424       .  A
C1389     Br1396   1.926   1_556  S
C1390      C1391   1.422       .  A
C1391      C1392   1.467       .  A
C1392      C1393   1.476       .  A
C1392     Br1397   1.911       .  S
C1393      C1394   1.427       .  A
C1394     Br1395   1.877       .  S
C1399      C1400   1.430       .  A
C1399      C1404   1.477       .  A
C1399     Br1406   1.936       .  S
C1400      C1401   1.444       .  A
C1401      C1402   1.469       .  A
C1402      C1403   1.460       .  A
C1402     Br1407   1.939       .  S
C1403      C1404   1.470       .  A
C1404     Br1405   1.901       .  S
C1409      C1410   1.402       .  A
C1409      C1414   1.460       .  A
C1409     Br1416   1.909       .  S
C1410      C1411   1.428       .  A
C1411      C1412   1.494       .  A
C1412      C1413   1.463       .  A
C1412     Br1417   1.870       .  S
C1413      C1414   1.445       .  A
C1414     Br1415   1.834       .  S
C1419      C1420   1.437       .  A
C1419      C1424   1.364       .  A
C1419     Br1426   1.916       .  S
C1420      C1421   1.425       .  A
C1421      C1422   1.415       .  A
C1421     Br1428   1.913       .  S
C1422      C1423   1.407       .  A
C1422     Br1427   1.916       .  S
C1423      C1424   1.386       .  A
C1424     Br1425   1.944       .  S
C1429      C1430   1.402       .  A
C1429      C1434   1.397       .  A
C1429     Br1436   1.871       .  S
C1430      C1431   1.421       .  A
C1431      C1432   1.390       .  A
C1431     Br1438   1.933       .  S
C1432      C1433   1.415       .  A
C1432     Br1437   1.905       .  S
C1433      C1434   1.410       .  A
C1434     Br1435   1.929       .  S
C1439      C1440   1.437       .  A
C1439      C1444   1.412       .  A
C1439     Br1446   1.915       .  S
C1440      C1441   1.458       .  A
C1441      C1442   1.377       .  A
C1441     Br1448   1.932       .  S
C1442      C1443   1.378       .  A
C1442     Br1447   1.951       .  S
C1443      C1444   1.401       .  A
C1444     Br1445   1.918       .  S
C1449      C1450   1.433       .  A
C1449      C1454   1.466       .  A
C1449     Br1456   1.897       .  S
C1450      C1451   1.434       .  A
C1451      C1452   1.428       .  A
C1452      C1453   1.419       .  A
C1452     Br1457   1.860       .  S
C1453      C1454   1.439       .  A
C1454     Br1455   1.897       .  S
C1459      C1460   1.467       .  A
C1459      C1464   1.458       .  A
C1459     Br1466   1.893       .  S
C1460      C1461   1.462       .  A
C1461      C1462   1.457       .  A
C1461     Br1468   1.942       .  S
C1462      C1463   1.442       .  A
C1462     Br1467   1.950       .  S
C1463      C1464   1.411       .  A
C1464     Br1465   1.934       .  S
C1469      C1470   1.457       .  A
C1469      C1474   1.448       .  A
C1469     Br1476   1.915       .  S
C1470      C1471   1.472       .  A
C1471      C1472   1.471       .  A
C1471     Br1478   1.893       .  S
C1472      C1473   1.419       .  A
C1473      C1474   1.434       .  A
C1474     Br1475   1.942       .  S
C1479      C1480   1.454       .  A
C1479      C1484   1.453       .  A
C1479     Br1486   1.935       .  S
C1480      C1481   1.439       .  A
C1481      C1482   1.463       .  A
C1481     Br1488   1.907       .  S
C1482      C1483   1.452       .  A
C1482     Br1487   1.897       .  S
C1483      C1484   1.451       .  A
C1484     Br1485   1.941       .  S
C1489      C1490   1.390       .  A
C1489      C1494   1.389       .  A
C1489     Br1496   1.915       .  S
C1490      C1491   1.383       .  A
C1491      C1492   1.372       .  A
C1492      C1493   1.472       .  A
C1492     Br1497   1.968       .  S
C1493      C1494   1.432       .  A
C1494     Br1495   1.915       .  S
C1499      C1500   1.399       .  A
C1499      C1504   1.383       .  A
C1499     Br1506   1.902       .  S
C1500      C1501   1.451       .  A
C1501      C1502   1.383       .  A
C1501     Br1508   1.924       .  S
C1502      C1503   1.409       .  A
C1502     Br1507   1.979       .  S
C1503      C1504   1.397       .  A
C1509      C1510   1.458       .  A
C1509      C1514   1.381       .  A
C1509     Br1516   1.936       .  S
C1510      C1511   1.433       .  A
C1511      C1512   1.418       .  A
C1511     Br1518   1.928       .  S
C1512      C1513   1.404       .  A
C1513      C1514   1.385       .  A
C1514     Br1515   1.962   1_556  S
C1519      C1520   1.443       .  A
C1519      C1524   1.417       .  A
C1519     Br1526   1.923       .  S
C1520      C1521   1.454       .  A
C1521      C1522   1.384       .  A
C1521     Br1528   1.963       .  S
C1522      C1523   1.412       .  A
C1522     Br1527   1.914       .  S
C1523      C1524   1.416       .  A
C1524     Br1525   1.899       .  S
