geometry optimzed in LAMMPS
_audit_creation_date              2020-11-30 
_audit_creation_method            'lammps2cif' 
_symmetry_space_group_name_H-M    'P1' 
_symmetry_Int_Tables_number       1 
_symmetry_cell_setting            triclinic 
loop_ 
_symmetry_equiv_pos_as_xyz 
  x,y,z 
_cell_length_a                    26.87949772 
_cell_length_b                    33.03316719331041 
_cell_length_c                    25.35915456963749 
_cell_angle_alpha                 90.05826653517676 
_cell_angle_beta                  90.0101644430046 
_cell_angle_gamma                 89.97133766696416 
loop_ 
_atom_site_label 
_atom_site_type_symbol 
_atom_site_fract_x 
_atom_site_fract_y 
_atom_site_fract_z 
_atom_site_charge 
O1          O  0.50271328  0.94008939  0.06035962    -0.72500
O2          O  0.50358799  0.06248262  0.05527854    -0.73400
O3          O  0.42770296  0.00182773  0.05720293    -0.62100
O4          O  0.07669779  0.00133053  0.05729810    -0.70500
O5          O  0.07658824  0.99935643  0.96968332    -0.70000
O6          O  0.42806697  0.00003097  0.96965449    -0.61300
O7          O  0.00361069  0.06080166  0.96749523    -0.73800
O8          O  0.00281037  0.93799339  0.97245413    -0.72600
Cu9        Cu  0.50246182  0.00142466  0.06066725     1.04600
Cu10       Cu  0.00252000  0.99935736  0.96669623     1.04300
C11         C  0.50387793  0.91987397  0.01738086     0.93700
C12         C  0.00488886  0.08077295  0.01072232     0.92900
C13         C  0.40439628  0.00140668  0.01325492     0.85000
C14         C  0.09997321  0.00082907  0.01339544     0.91300
O15         O  0.99190340  0.05890688  0.55150524    -0.72500
O16         O  0.99475849  0.93672631  0.54902995    -0.73400
O17         O  0.06706826  0.99873798  0.54988909    -0.62100
O18         O  0.41814884  0.99660068  0.54991627    -0.70500
O19         O  0.41847265  0.99662072  0.46233882    -0.70000
O20         O  0.06697697  0.00023197  0.46226751    -0.61300
O21         O  0.99603232  0.93706327  0.46149630    -0.73800
O22         O  0.99137312  0.06026771  0.46398643    -0.72600
Cu23       Cu  0.99265956  0.99777648  0.55291259     1.04600
Cu24       Cu  0.49293021  0.99850240  0.45966446     1.04300
C25         C  0.99222291  0.07879852  0.50836002     0.93700
C26         C  0.99766880  0.91776806  0.50522992     0.92900
C27         C  0.09036811  0.99967868  0.50600309     0.85000
C28         C  0.39482219  0.99647392  0.50597051     0.91300
O29         O  0.17734026  0.00300961  0.96907990    -0.72500
O30         O  0.32654927  0.00400443  0.96886609    -0.73400
O31         O  0.25166495  0.94311911  0.96568269    -0.62100
O32         O  0.25028721  0.06469385  0.96995429    -0.70500
O33         O  0.25093840  0.06407726  0.05749458    -0.70000
O34         O  0.25051098  0.94066358  0.05318385    -0.61300
O35         O  0.32615080  0.00188813  0.05639480    -0.73800
O36         O  0.17761762  0.00234315  0.05672578    -0.72600
Cu37       Cu  0.25173106  0.00385780  0.96544205     1.04600
Cu38       Cu  0.25162137  0.00224721  0.05912147     1.04300
C39         C  0.15415203  0.00213087  0.01304235     0.93700
C40         C  0.34984382  0.00251946  0.01279200     0.92900
C41         C  0.24957043  0.92279010  0.00831700     0.85000
C42         C  0.24877050  0.08353166  0.01386256     0.91300
O43         O  0.16779512  0.99878801  0.46170836    -0.72500
O44         O  0.31693397  0.99593508  0.46160616    -0.73400
O45         O  0.23986020  0.93656919  0.46331883    -0.62100
O46         O  0.24340596  0.05829004  0.45839484    -0.70500
O47         O  0.24281358  0.06070621  0.54591592    -0.70000
O48         O  0.24038027  0.93800028  0.55089420    -0.61300
O49         O  0.31665639  0.99828768  0.54914241    -0.73800
O50         O  0.16809067  0.00018209  0.54934040    -0.72600
Cu51       Cu  0.24217999  0.99731893  0.45821819     1.04600
Cu52       Cu  0.24219067  0.99938931  0.55192135     1.04300
C53         C  0.14459521  0.99967518  0.50566215     0.93700
C54         C  0.34027702  0.99675485  0.50553109     0.92900
C55         C  0.23844166  0.91822024  0.50754855     0.85000
C56         C  0.24255377  0.07863037  0.50119738     0.91300
N57         N  0.52271778  0.73520458  0.96189578    -0.36100
N58         N  0.52397778  0.64678655  0.96164688    -0.56700
N59         N  0.53541788  0.64816538  0.07629498    -0.36100
N60         N  0.52792280  0.73608943  0.07669151    -0.56700
C61         C  0.51293276  0.72767404  0.91042898     0.27500
C62         C  0.51122038  0.77452923  0.97141788     0.27500
C63         C  0.52520133  0.60855069  0.06805430     0.27500
C64         C  0.52877653  0.65548813  0.12833423     0.27500
C65         C  0.53087729  0.65343029  0.90944906     0.36100
C66         C  0.53479051  0.60730060  0.97039346     0.36100
C67         C  0.53266762  0.77621261  0.06718196     0.36100
C68         C  0.54175154  0.73005018  0.12739280     0.36100
C69         C  0.49532209  0.76272835  0.88679540    -0.21400
C70         C  0.49414523  0.79220653  0.92520574    -0.21400
C71         C  0.51201424  0.59049825  0.11538426    -0.21400
C72         C  0.51421734  0.62011899  0.15341423    -0.21400
C73         C  0.54554940  0.61783060  0.88490922    -0.22500
C74         C  0.54787974  0.58861824  0.92346400    -0.22500
C75         C  0.54942496  0.79578489  0.11218553    -0.22500
C76         C  0.55544945  0.76650833  0.15023382    -0.22500
C77         C  0.52262183  0.69086388  0.88336632    -0.17800
C78         C  0.51924701  0.79562275  0.01947567    -0.17800
C79         C  0.53837977  0.69259875  0.15431089    -0.17800
C80         C  0.53121928  0.58756604  0.01984166    -0.17800
H81         H  0.48493941  0.76682196  0.84590064     0.15100
H82         H  0.48299487  0.82337187  0.91939102     0.15100
H83         H  0.50239936  0.55909001  0.12196967     0.15100
H84         H  0.50645552  0.61594697  0.19493747     0.15100
H85         H  0.55389721  0.61335681  0.84356405     0.13400
H86         H  0.55831330  0.55727418  0.91766459     0.13400
H87         H  0.55645684  0.82782387  0.11710379     0.13400
H88         H  0.56782982  0.77156003  0.19031906     0.13400
H89         H  0.54156250  0.71592734  0.98720276     0.26600
H90         H  0.55190817  0.66770151  0.04940414     0.26600
N91         N  0.53869337  0.73332400  0.45947369    -0.36100
N92         N  0.53560694  0.73748685  0.57431548    -0.56700
N93         N  0.54407748  0.64877177  0.57765837    -0.36100
N94         N  0.55323464  0.64531665  0.46294121    -0.56700
C95         C  0.54087055  0.77395057  0.46704076     0.27500
C96         C  0.55248601  0.72595694  0.40898182     0.27500
C97         C  0.54560188  0.65715752  0.63002606     0.27500
C98         C  0.55150464  0.60836522  0.57160845     0.27500
C99         C  0.52218383  0.77612394  0.56332356     0.36100
C100        C  0.52743045  0.73180311  0.62649077     0.36100
C101        C  0.55124724  0.65013409  0.40989287     0.36100
C102        C  0.55081505  0.60498182  0.47247301     0.36100
C103        C  0.55636211  0.79253993  0.42090944    -0.21400
C104        C  0.56394436  0.76231788  0.38444029    -0.21400
C105        C  0.55486530  0.62168566  0.65746505    -0.21400
C106        C  0.55765906  0.59104954  0.62106472    -0.21400
C107        C  0.50640968  0.79532032  0.60896233    -0.22500
C108        C  0.50982253  0.76734953  0.64889274    -0.22500
C109        C  0.54928256  0.61257255  0.38558204    -0.22500
C110        C  0.54979248  0.58413906  0.42492724    -0.22500
C111        C  0.52602494  0.79487712  0.51323480    -0.17800
C112        C  0.55133564  0.68786722  0.38296269    -0.17800
C113        C  0.54949296  0.58637512  0.52319113    -0.17800
C114        C  0.53493113  0.69503085  0.65444484    -0.17800
H115        H  0.56127699  0.82462415  0.41406175     0.15100
H116        H  0.57584642  0.76670957  0.34407034     0.15100
H117        H  0.55765996  0.61775357  0.69971353     0.15100
H118        H  0.56244212  0.55953249  0.63101718     0.15100
H119        H  0.49367545  0.82624847  0.61309127     0.13400
H120        H  0.49959446  0.77246132  0.68963287     0.13400
H121        H  0.54733620  0.60599329  0.34385757     0.13400
H122        H  0.54920917  0.55173909  0.41878336     0.13400
H123        H  0.52216760  0.71269188  0.48468377     0.26600
H124        H  0.53336061  0.66856762  0.54845985     0.26600
N125        N  0.22356870  0.73959037  0.94223170    -0.36100
N126        N  0.22502811  0.73909990  0.05680017    -0.56700
N127        N  0.22471699  0.65063551  0.05585180    -0.36100
N128        N  0.21683523  0.65128133  0.94153350    -0.56700
C129        C  0.21796343  0.77959970  0.95264480     0.27500
C130        C  0.20873961  0.73302264  0.89182210     0.27500
C131        C  0.21391085  0.65786198  0.10719125     0.27500
C132        C  0.21477939  0.61111570  0.04609645     0.27500
C133        C  0.23735638  0.77831011  0.04861325     0.36100
C134        C  0.23245469  0.73187780  0.10869801     0.36100
C135        C  0.22339039  0.65852488  0.88950364     0.36100
C136        C  0.22854050  0.61187344  0.94927778     0.36100
C137        C  0.19955677  0.79886815  0.90819770    -0.21400
C138        C  0.19317699  0.76944844  0.87005043    -0.21400
C139        C  0.19693573  0.62238743  0.13031475    -0.21400
C140        C  0.19792189  0.59283576  0.09189287    -0.21400
C141        C  0.25221894  0.79609802  0.09558832    -0.22500
C142        C  0.24908058  0.76673610  0.13359218    -0.22500
C143        C  0.23935006  0.62358267  0.86426212    -0.22500
C144        C  0.24252461  0.59404516  0.90210565    -0.22500
C145        C  0.23151141  0.79916070  0.00038388    -0.17800
C146        C  0.21290891  0.69570617  0.86398661    -0.17800
C147        C  0.22283014  0.59095341  0.99747211    -0.17800
C148        C  0.22244756  0.69478496  0.13450030    -0.17800
H149        H  0.19161208  0.83080420  0.90370168     0.15100
H150        H  0.17954888  0.77453435  0.83044594     0.15100
H151        H  0.18580888  0.61801502  0.17092452     0.15100
H152        H  0.18783118  0.56140328  0.09724889     0.15100
H153        H  0.26349386  0.82716044  0.10203550     0.13400
H154        H  0.25807741  0.77069822  0.17487075     0.13400
H155        H  0.24798904  0.61974465  0.82287997     0.13400
H156        H  0.25357461  0.56292323  0.89560784     0.13400
H157        H  0.24205072  0.71898615  0.96612760     0.26600
H158        H  0.24312299  0.67019688  0.03049182     0.26600
N159        N  0.21533153  0.73632271  0.44288614    -0.36100
N160        N  0.20722887  0.73436700  0.55736605    -0.56700
N161        N  0.20167029  0.64622715  0.55541373    -0.36100
N162        N  0.21537677  0.64807812  0.44076241    -0.56700
C163        C  0.22798746  0.77500059  0.45469352     0.27500
C164        C  0.22804465  0.72967258  0.39198826     0.27500
C165        C  0.20642323  0.65292196  0.60804140     0.27500
C166        C  0.21277723  0.60675400  0.54623281     0.27500
C167        C  0.20248843  0.77462230  0.54900687     0.36100
C168        C  0.19265867  0.72756163  0.60759172     0.36100
C169        C  0.21179611  0.65533885  0.38828119     0.36100
C170        C  0.20882028  0.60771821  0.44742590     0.36100
C171        C  0.24846693  0.79325292  0.41049334    -0.21400
C172        C  0.24835602  0.76470375  0.37090962    -0.21400
C173        C  0.21944719  0.61701642  0.63264784    -0.21400
C174        C  0.22261544  0.58792598  0.59406690    -0.21400
C175        C  0.18438751  0.79344603  0.59390737    -0.22500
C176        C  0.17770199  0.76359567  0.63084967    -0.22500
C177        C  0.20285604  0.61942819  0.36164764    -0.22500
C178        C  0.20201651  0.58933907  0.39872847    -0.22500
C179        C  0.21849817  0.79494277  0.50311471    -0.17800
C180        C  0.22021994  0.69328676  0.36353275    -0.17800
C181        C  0.21225762  0.58685444  0.49632062    -0.17800
C182        C  0.19855031  0.69035855  0.63461502    -0.17800
H183        H  0.26155724  0.82410781  0.40687371     0.15100
H184        H  0.26183437  0.76924112  0.33113317     0.15100
H185        H  0.22616204  0.61198015  0.67417313     0.15100
H186        H  0.23122504  0.55645476  0.60118074     0.15100
H187        H  0.17743643  0.82542099  0.59967149     0.13400
H188        H  0.16468809  0.76810254  0.67080545     0.13400
H189        H  0.19839796  0.61495789  0.31965382     0.13400
H190        H  0.19739814  0.55753398  0.39007642     0.13400
H191        H  0.19435687  0.71698053  0.46618699     0.26600
H192        H  0.18761509  0.66655221  0.52802480     0.26600
N193        N  0.03627167  0.26230358  0.07374448    -0.36100
N194        N  0.04041201  0.26476681  0.95884573    -0.56700
N195        N  0.05619189  0.35254894  0.96184925    -0.36100
N196        N  0.04648721  0.35037182  0.07683116    -0.56700
C197        C  0.01897497  0.22484703  0.06163392     0.27500
C198        C  0.02425365  0.26975586  0.12472398     0.27500
C199        C  0.05135137  0.34687326  0.90898648     0.27500
C200        C  0.05081693  0.39274920  0.97175493     0.27500
C201        C  0.04151125  0.22418680  0.96648748     0.36100
C202        C  0.05383479  0.27112326  0.90809979     0.36100
C203        C  0.04805308  0.34277395  0.12927864     0.36100
C204        C  0.05411521  0.39065161  0.07083690     0.36100
C205        C  0.99615615  0.20822890  0.10560994    -0.21400
C206        C  0.99959727  0.23649794  0.14540592    -0.21400
C207        C  0.04498244  0.38414427  0.88486642    -0.21400
C208        C  0.04531535  0.41293208  0.92407651    -0.21400
C209        C  0.05580371  0.20473234  0.92052492    -0.22500
C210        C  0.06394011  0.23441742  0.88371033    -0.22500
C211        C  0.05730468  0.37830526  0.15661052    -0.22500
C212        C  0.06024883  0.40855333  0.11996714    -0.22500
C213        C  0.02606672  0.20437084  0.01307994    -0.17800
C214        C  0.03559653  0.30543299  0.15346330    -0.17800
C215        C  0.05119361  0.41200316  0.02226694    -0.17800
C216        C  0.05264622  0.30903137  0.88186176    -0.17800
H217        H  0.97900483  0.17869420  0.10880652     0.15100
H218        H  0.98522822  0.23304415  0.18501567     0.15100
H219        H  0.04018460  0.39025221  0.84328717     0.15100
H220        H  0.04176080  0.44516003  0.91766006     0.15100
H221        H  0.05953120  0.17248709  0.91404480     0.13400
H222        H  0.07532405  0.22948251  0.84327100     0.13400
H223        H  0.05956818  0.38254359  0.19885652     0.13400
H224        H  0.06502829  0.44019314  0.12938770     0.13400
H225        H  0.05952960  0.27992500  0.05052248     0.26600
H226        H  0.06538979  0.33048784  0.98907732     0.26600
N227        N  0.01901751  0.26167265  0.57369206    -0.36100
N228        N  0.01481169  0.26385630  0.45908044    -0.56700
N229        N  0.02343865  0.35212816  0.46135089    -0.36100
N230        N  0.03413266  0.34942831  0.57573822    -0.56700
C231        C  0.02162212  0.22158892  0.56221733     0.27500
C232        C  0.03536687  0.26678420  0.62392071     0.27500
C233        C  0.03190096  0.34510510  0.40942515     0.27500
C234        C  0.03629312  0.39102033  0.47151575     0.27500
C235        C  0.00054202  0.22497844  0.46655493     0.36100
C236        C  0.00803956  0.27195806  0.40729593     0.36100
C237        C  0.02922991  0.34209289  0.62798140     0.36100
C238        C  0.02708913  0.38971375  0.56927946     0.36100
C239        C  0.03935973  0.20090448  0.60591077    -0.21400
C240        C  0.04832216  0.22938562  0.64464027    -0.21400
C241        C  0.04991609  0.38021533  0.38624097    -0.21400
C242        C  0.05233728  0.40922275  0.42530062    -0.21400
C243        C  0.98452445  0.20837903  0.41925386    -0.22500
C244        C  0.98941238  0.23806390  0.38174627    -0.22500
C245        C  0.01919315  0.37784749  0.65464574    -0.22500
C246        C  0.01778659  0.40793553  0.61752339    -0.22500
C247        C  0.00653199  0.20314386  0.51414790    -0.17800
C248        C  0.03584756  0.30393693  0.65246440    -0.17800
C249        C  0.03218674  0.41080880  0.52103188    -0.17800
C250        C  0.02141627  0.30855506  0.38192933    -0.17800
H251        H  0.04531548  0.16861768  0.60951120     0.15100
H252        H  0.06233983  0.22316126  0.68381211     0.15100
H253        H  0.05983257  0.38466750  0.34528999     0.15100
H254        H  0.06457719  0.44018160  0.42020413     0.15100
H255        H  0.97179429  0.17777025  0.41220063     0.13400
H256        H  0.98069629  0.23490916  0.34026576     0.13400
H257        H  0.01321246  0.38189817  0.69652045     0.13400
H258        H  0.01088366  0.43966873  0.62527305     0.13400
H259        H  0.00194812  0.28357349  0.55059035     0.26600
H260        H  0.00530940  0.33289285  0.48730870     0.26600
N261        N  0.21119781  0.26768636  0.05702289    -0.36100
N262        N  0.21726346  0.26381779  0.94306249    -0.56700
N263        N  0.21558653  0.35266259  0.94047983    -0.36100
N264        N  0.20452719  0.35590163  0.05469318    -0.56700
C265        C  0.20517355  0.22752572  0.04842486     0.27500
C266        C  0.19507701  0.27549828  0.10651127     0.27500
C267        C  0.21067820  0.34418569  0.88833554     0.27500
C268        C  0.20771907  0.39296753  0.94707151     0.27500
C269        C  0.23084692  0.22532561  0.95468753     0.36100
C270        C  0.22882959  0.26988304  0.89175085     0.36100
C271        C  0.20752935  0.35023354  0.10755844     0.36100
C272        C  0.21264684  0.39581799  0.04575854     0.36100
C273        C  0.18408229  0.20970879  0.09251802    -0.21400
C274        C  0.17749547  0.24004157  0.12913473    -0.21400
C275        C  0.19904612  0.37953391  0.86161716    -0.21400
C276        C  0.19820843  0.41020614  0.89816041    -0.21400
C277        C  0.25043603  0.20666919  0.91038929    -0.22500
C278        C  0.24904508  0.23482905  0.87051198    -0.22500
C279        C  0.21639514  0.38687996  0.13240751    -0.22500
C280        C  0.21883889  0.41570498  0.09357566    -0.22500
C281        C  0.22304277  0.20627900  0.00395412    -0.17800
C282        C  0.20131744  0.31258616  0.13376671    -0.17800
C283        C  0.21249281  0.41487019  0.99534540    -0.17800
C284        C  0.22080363  0.30635757  0.86346116    -0.17800
H285        H  0.17548577  0.17799928  0.09815322     0.15100
H286        H  0.16300449  0.23618088  0.16861497     0.15100
H287        H  0.19340968  0.38339865  0.81968766     0.15100
H288        H  0.19236868  0.44169182  0.88863941     0.15100
H289        H  0.26413624  0.17595825  0.90709232     0.13400
H290        H  0.26215657  0.23017386  0.83061689     0.13400
H291        H  0.22061922  0.39255318  0.17417758     0.13400
H292        H  0.22438132  0.44769098  0.10037116     0.13400
H293        H  0.23227266  0.28710102  0.03386507     0.26600
H294        H  0.22936516  0.33312627  0.96883019     0.26600
N295        N  0.22839501  0.26318386  0.43981471    -0.36100
N296        N  0.22868753  0.26247873  0.55487447    -0.56700
N297        N  0.22737926  0.35080060  0.55594548    -0.36100
N298        N  0.22042194  0.35122730  0.44121255    -0.56700
C299        C  0.22136009  0.22324746  0.44951051     0.27500
C300        C  0.21412148  0.27027885  0.38939379     0.27500
C301        C  0.21737131  0.34284317  0.60729462     0.27500
C302        C  0.21583295  0.39014300  0.54705435     0.27500
C303        C  0.24069078  0.22331451  0.54550485     0.36100
C304        C  0.23735562  0.26913837  0.60675230     0.36100
C305        C  0.22527282  0.34523724  0.38866393     0.36100
C306        C  0.22771768  0.39124385  0.44962054     0.36100
C307        C  0.20294602  0.20462538  0.40455318    -0.21400
C308        C  0.19804846  0.23431474  0.36677361    -0.21400
C309        C  0.19923880  0.37764850  0.63125484    -0.21400
C310        C  0.19874462  0.40754834  0.59340262    -0.21400
C311        C  0.25676284  0.20502539  0.59163036    -0.22500
C312        C  0.25477033  0.23403988  0.63034236    -0.22500
C313        C  0.23558982  0.38162420  0.36372069    -0.22500
C314        C  0.23706291  0.41072144  0.40226630    -0.22500
C315        C  0.23349605  0.20298961  0.49702177    -0.17800
C316        C  0.21759847  0.30785164  0.36245769    -0.17800
C317        C  0.22219355  0.41106932  0.49872933    -0.17800
C318        C  0.22716406  0.30578888  0.63377672    -0.17800
H319        H  0.19385093  0.17294281  0.39951928     0.15100
H320        H  0.18438257  0.22982432  0.32704710     0.15100
H321        H  0.18808004  0.38133283  0.67198293     0.15100
H322        H  0.18732192  0.43862044  0.59943569     0.15100
H323        H  0.26824938  0.17389114  0.59698080     0.13400
H324        H  0.26484070  0.22968045  0.67126113     0.13400
H325        H  0.24123058  0.38681959  0.32202621     0.13400
H326        H  0.24366076  0.44267977  0.39599801     0.13400
H327        H  0.24688914  0.28338985  0.46436588     0.26600
H328        H  0.24612771  0.33185089  0.52995197     0.26600
C329        C  0.25937610  0.32951504  0.72188537    -0.12900
C330        C  0.22638563  0.30522530  0.69278169     0.09300
C331        C  0.19292759  0.28013084  0.72006357    -0.12900
C332        C  0.19176749  0.27998914  0.77530778    -0.12900
C333        C  0.22390671  0.30503524  0.80444971     0.09300
C334        C  0.25831201  0.32928154  0.77712700    -0.12900
H335        H  0.28588583  0.34873077  0.70173519     0.13300
H336        H  0.16718144  0.26108734  0.69848966     0.13300
H337        H  0.16502772  0.26094352  0.79540511     0.13300
H338        H  0.28394239  0.34842901  0.79867550     0.13300
C339        C  0.24586841  0.28655973  0.27197673    -0.12900
C340        C  0.21235747  0.30821165  0.30378165     0.09300
C341        C  0.17461380  0.33101515  0.27947528    -0.12900
C342        C  0.17080192  0.33245662  0.22444091    -0.12900
C343        C  0.20444448  0.31102955  0.19261450     0.09300
C344        C  0.24185982  0.28787279  0.21697288    -0.12900
H345        H  0.27541776  0.26895787  0.28980042     0.13300
H346        H  0.14823171  0.34784650  0.30321262     0.13300
H347        H  0.14171523  0.35034702  0.20661764     0.13300
H348        H  0.26833163  0.27113129  0.19324287     0.13300
C349        C  0.08440465  0.32724402  0.79070300    -0.12900
C350        C  0.04876571  0.30827910  0.82274861     0.09300
C351        C  0.50957134  0.28697195  0.79874372    -0.12900
C352        C  0.50648592  0.28422676  0.74370508    -0.12900
C353        C  0.04209657  0.30335193  0.71120755     0.09300
C354        C  0.08106225  0.32489461  0.73554324    -0.12900
H355        H  0.11488272  0.34370233  0.80841877     0.13300
H356        H  0.48128639  0.27243243  0.82251052     0.13300
H357        H  0.47557252  0.26817123  0.72601437     0.13300
H358        H  0.10864552  0.34022534  0.71169338     0.13300
C359        C  0.06241829  0.28512151  0.29821817    -0.12900
C360        C  0.02517903  0.30804693  0.32323620     0.09300
C361        C  0.49000545  0.32945217  0.29290258    -0.12900
C362        C  0.49241971  0.32777962  0.23775766    -0.12900
C363        C  0.03053324  0.30464682  0.21209070     0.09300
C364        C  0.06495968  0.28332666  0.24308086    -0.12900
H365        H  0.08959536  0.26877040  0.32148605     0.13300
H366        H  0.46106093  0.34719594  0.31159558     0.13300
H367        H  0.46565044  0.34468061  0.21465103     0.13300
H368        H  0.09434793  0.26598703  0.22455545     0.13300
C369        C  0.25903478  0.52163862  0.51313975    -0.12900
C370        C  0.21590242  0.54159496  0.49533950     0.09300
C371        C  0.17578564  0.51821003  0.47724280    -0.12900
C372        C  0.17796218  0.47592065  0.47843071    -0.12900
C373        C  0.21995207  0.45612077  0.49864322     0.09300
C374        C  0.26074563  0.47924165  0.51555685    -0.12900
H375        H  0.29096837  0.53897127  0.52613014     0.13300
H376        H  0.14257577  0.53282052  0.46235064     0.13300
H377        H  0.14672609  0.45850924  0.46390399     0.13300
H378        H  0.29400151  0.46443782  0.53004021     0.13300
C379        C  0.17994876  0.52611301  0.97423209    -0.12900
C380        C  0.22134811  0.54583938  0.99588567     0.09300
C381        C  0.26137274  0.52255605  0.01448702    -0.12900
C382        C  0.25933822  0.48010356  0.01245921    -0.12900
C383        C  0.21664554  0.46020372  0.99325452     0.09300
C384        C  0.17735979  0.48381518  0.97354981    -0.12900
H385        H  0.14909407  0.54358717  0.95886809     0.13300
H386        H  0.29411650  0.53725036  0.03039755     0.13300
H387        H  0.29057386  0.46268562  0.02707593     0.13300
H388        H  0.14414998  0.46943120  0.95829034     0.13300
C389        C  0.17326790  0.66950348  0.78032517    -0.12900
C390        C  0.20774579  0.69532429  0.80517306     0.09300
C391        C  0.23928531  0.71896976  0.77365705    -0.12900
C392        C  0.23627131  0.71706036  0.71862206    -0.12900
C393        C  0.20144211  0.69164463  0.69367189     0.09300
C394        C  0.17009609  0.66775112  0.72517878    -0.12900
H395        H  0.14877572  0.65068526  0.80373796     0.13300
H396        H  0.26679815  0.73849976  0.79172347     0.13300
H397        H  0.26139024  0.73538353  0.69530876     0.13300
H398        H  0.14310979  0.64784487  0.70705715     0.13300
C399        C  0.25703870  0.67158833  0.22135348    -0.12900
C400        C  0.22201149  0.69460676  0.19331787     0.09300
C401        C  0.18802416  0.71872082  0.22140825    -0.12900
C402        C  0.18828337  0.71897444  0.27660185    -0.12900
C403        C  0.22230574  0.69494280  0.30468713     0.09300
C404        C  0.25739749  0.67194694  0.27652096    -0.14500
H405        H  0.28418240  0.65343392  0.20041695     0.13300
H406        H  0.16097936  0.73699611  0.20051856     0.13300
H407        H  0.16116376  0.73719646  0.29750095     0.13300
H408        H  0.28459374  0.65380976  0.29736132     0.13300
C409        C  0.50194912  0.52224827  0.50361117    -0.12900
C410        C  0.04361827  0.54130925  0.52516514     0.09300
C411        C  0.08060280  0.51691340  0.54804602    -0.12900
C412        C  0.07633860  0.47467847  0.54751824    -0.12900
C413        C  0.03567280  0.45587613  0.52293322     0.09300
C414        C  0.49818161  0.47994437  0.50203993    -0.12900
H415        H  0.47241443  0.54035421  0.48664171     0.13300
H416        H  0.11329533  0.53058000  0.56556646     0.13300
H417        H  0.10536022  0.45651135  0.56521344     0.13300
H418        H  0.46586246  0.46607500  0.48403680     0.13300
C419        C  0.07760496  0.52428949  0.04390790    -0.12900
C420        C  0.53506810  0.54261001  0.02188611     0.09300
C421        C  0.49618803  0.51803331  0.00355456    -0.12900
C422        C  0.50050775  0.47576812  0.00531792    -0.12900
C423        C  0.04502236  0.45712994  0.02429039     0.09300
C424        C  0.08269002  0.48211760  0.04466878    -0.12900
H425        H  0.10720061  0.54297495  0.05950337     0.13300
H426        H  0.46261546  0.53160022  0.98789494     0.13300
H427        H  0.47013305  0.45731121  0.99084853     0.13300
H428        H  0.11642793  0.46893337  0.06050065     0.13300
C429        C  0.06242737  0.71411769  0.79948440    -0.12900
C430        C  0.52498804  0.69216829  0.82454409     0.09300
C431        C  0.48897175  0.67257508  0.79355074    -0.12900
C432        C  0.49141250  0.67441721  0.73836641    -0.12900
C433        C  0.53006823  0.69566269  0.71323861     0.09300
C434        C  0.06493442  0.71607945  0.74438066    -0.12900
H435        H  0.09039200  0.72952701  0.82279976     0.13300
H436        H  0.45907514  0.65587631  0.81212179     0.13300
H437        H  0.46362168  0.65875002  0.71511632     0.13300
H438        H  0.09496705  0.73272224  0.72600473     0.13300
C439        C  0.50808724  0.70776223  0.29911325    -0.12900
C440        C  0.54823539  0.68824813  0.32403550     0.09300
C441        C  0.08400322  0.67065822  0.29252512    -0.12900
C442        C  0.08089146  0.67210649  0.23741703    -0.12900
C443        C  0.54252055  0.69206076  0.21288483     0.09300
C444        C  0.50539570  0.70984771  0.24409167    -0.12900
H445        H  0.47889239  0.72156943  0.32244462     0.13300
H446        H  0.11555136  0.65596404  0.31082381     0.13300
H447        H  0.10975715  0.65801021  0.21393518     0.13300
H448        H  0.47407721  0.72493910  0.22576452     0.13300
C449        C  0.24023901  0.12231038  0.49874911    -0.12800
C450        C  0.23710841  0.15889386  0.49678608    -0.14300
C451        C  0.23305717  0.87476066  0.50806413    -0.12800
C452        C  0.22652653  0.83851948  0.50617087    -0.14300
C453        C  0.23364363  0.16305373  0.00939874    -0.12800
C454        C  0.24219999  0.12707654  0.01335172    -0.14300
C455        C  0.24437534  0.87928272  0.00503696    -0.12800
C456        C  0.23817591  0.84303257  0.00108764    -0.14300
C457        C  0.99510120  0.12262541  0.51013131    -0.12800
C458        C  0.99979595  0.15916976  0.51256835    -0.14300
C459        C  0.51498124  0.83817486  0.50901414    -0.12800
C460        C  0.50597510  0.87416646  0.50625311    -0.14300
C461        C  0.00992339  0.12443197  0.00985362    -0.12800
C462        C  0.01661955  0.16077798  0.01091478    -0.14300
C463        C  0.50790815  0.87614197  0.01908967    -0.12800
C464        C  0.51305545  0.83962023  0.01975176    -0.14300
O465        O  0.00274066  0.94001582  0.05996042    -0.72500
O466        O  0.00324668  0.06243924  0.05502810    -0.73400
O467        O  0.92759310  0.00168177  0.05687206    -0.62100
O468        O  0.57679352  0.00124405  0.05752692    -0.70500
O469        O  0.57659621  0.99925203  0.96990512    -0.70000
O470        O  0.92796193  0.99995763  0.96932124    -0.61300
O471        O  0.50387324  0.06083770  0.96774793    -0.73800
O472        O  0.50277827  0.93801651  0.97285125    -0.72600
Cu473      Cu  0.00233638  0.00137222  0.06036289     1.04600
Cu474      Cu  0.50259607  0.99936636  0.96699743     1.04300
C475        C  0.00391980  0.91981909  0.01696237     0.93700
C476        C  0.50529747  0.08081282  0.01097568     0.92900
C477        C  0.90429020  0.00133708  0.01292433     0.85000
C478        C  0.60000759  0.00070852  0.01359009     0.91300
O479        O  0.49190197  0.05880735  0.55183318    -0.72500
O480        O  0.49539941  0.93660606  0.54957151    -0.73400
O481        O  0.56730338  0.99890560  0.54994088    -0.62100
O482        O  0.91795171  0.99695555  0.54914041    -0.70500
O483        O  0.91848102  0.99704702  0.46155952    -0.70000
O484        O  0.56689061  0.00030511  0.46231283    -0.61300
O485        O  0.49636375  0.93689586  0.46203600    -0.73800
O486        O  0.49109769  0.06010840  0.46431716    -0.72600
Cu487      Cu  0.49292897  0.99767603  0.55334440     1.04600
Cu488      Cu  0.99297061  0.99867980  0.45923206     1.04300
C489        C  0.49210572  0.07867368  0.50866740     0.93700
C490        C  0.49831449  0.91763091  0.50577761     0.92900
C491        C  0.59042941  0.99986246  0.50595119     0.85000
C492        C  0.89473788  0.99690735  0.50513512     0.91300
O493        O  0.67724495  0.00286508  0.96912924    -0.72500
O494        O  0.82640282  0.00396600  0.96859801    -0.73400
O495        O  0.75161031  0.94302816  0.96575191    -0.62100
O496        O  0.75003386  0.06463073  0.96960379    -0.70500
O497        O  0.75071723  0.06421595  0.05714106    -0.70000
O498        O  0.75066572  0.94072815  0.05326082    -0.61300
O499        O  0.82610724  0.00207866  0.05613739    -0.73800
O500        O  0.67766053  0.00229927  0.05678289    -0.72600
Cu501      Cu  0.75158558  0.00377255  0.96531777     1.04600
Cu502      Cu  0.75161067  0.00234716  0.05900420     1.04300
C503        C  0.65414490  0.00201272  0.01314143     0.93700
C504        C  0.84974458  0.00255458  0.01249932     0.92900
C505        C  0.74968992  0.92276575  0.00845033     0.85000
C506        C  0.74846407  0.08357585  0.01343159     0.91300
O507        O  0.66768960  0.99902809  0.46135761    -0.72500
O508        O  0.81682606  0.99638473  0.46077356    -0.73400
O509        O  0.73987025  0.93685404  0.46276607    -0.62100
O510        O  0.74317242  0.05861001  0.45783873    -0.70500
O511        O  0.74288134  0.06099045  0.54537037    -0.70000
O512        O  0.74050382  0.93834193  0.55033693    -0.61300
O513        O  0.81666669  0.99866324  0.54831856    -0.73800
O514        O  0.66823615  0.00050617  0.54899155    -0.72600
Cu515      Cu  0.74205766  0.99764279  0.45762799     1.04600
Cu516      Cu  0.74228326  0.99971978  0.55133836     1.04300
C517        C  0.64462785  0.99994481  0.50539272     0.93700
C518        C  0.84021727  0.99720008  0.50466855     0.92900
C519        C  0.73853715  0.91852576  0.50702458     0.85000
C520        C  0.74247907  0.07892073  0.50066913     0.91300
N521        N  0.02219474  0.73501094  0.96174854    -0.36100
N522        N  0.02341904  0.64650387  0.96150106    -0.56700
N523        N  0.03436145  0.64794604  0.07613250    -0.36100
N524        N  0.02694329  0.73592898  0.07647554    -0.56700
C525        C  0.01225059  0.72741852  0.91033484     0.27500
C526        C  0.01068739  0.77434496  0.97121820     0.27500
C527        C  0.02457882  0.60825964  0.06789242     0.27500
C528        C  0.02755598  0.65524273  0.12814844     0.27500
C529        C  0.03047340  0.65321880  0.90933854     0.36100
C530        C  0.03454105  0.60707036  0.97027429     0.36100
C531        C  0.03178844  0.77605816  0.06703751     0.36100
C532        C  0.04032410  0.72986941  0.12730514     0.36100
C533        C  0.99449876  0.76242679  0.88669965    -0.21400
C534        C  0.99344525  0.79195602  0.92503898    -0.21400
C535        C  0.01145774  0.59013732  0.11519971    -0.21400
C536        C  0.01328992  0.61978570  0.15321599    -0.21400
C537        C  0.04553578  0.61771475  0.88483346    -0.22500
C538        C  0.04798174  0.58849320  0.92338420    -0.22500
C539        C  0.04812388  0.79561489  0.11222342    -0.22500
C540        C  0.05378070  0.76632661  0.15031534    -0.22500
C541        C  0.02206038  0.69063856  0.88326818    -0.17800
C542        C  0.01876342  0.79548783  0.01922220    -0.17800
C543        C  0.03688513  0.69238934  0.15414871    -0.17800
C544        C  0.03100218  0.58729906  0.01972023    -0.17800
H545        H  0.98397068  0.76646221  0.84583637     0.15100
H546        H  0.98221678  0.82310109  0.91921129     0.15100
H547        H  0.00218197  0.55866207  0.12179313     0.15100
H548        H  0.00554942  0.61556402  0.19473594     0.15100
H549        H  0.05410028  0.61332447  0.84352226     0.13400
H550        H  0.05873665  0.55721839  0.91761286     0.13400
H551        H  0.05508753  0.82765412  0.11724474     0.13400
H552        H  0.06578873  0.77136781  0.19053024     0.13400
H553        H  0.04119054  0.71578618  0.98700287     0.26600
H554        H  0.05074053  0.66756693  0.04928369     0.26600
N555        N  0.03725994  0.73339478  0.45919942    -0.36100
N556        N  0.03500616  0.73769405  0.57412925    -0.56700
N557        N  0.04435373  0.64899993  0.57754929    -0.36100
N558        N  0.05221194  0.64543073  0.46264606    -0.56700
C559        C  0.03942274  0.77403008  0.46667776     0.27500
C560        C  0.05078864  0.72601152  0.40862438     0.27500
C561        C  0.04494183  0.65725197  0.62997813     0.27500
C562        C  0.05065608  0.60846220  0.57147940     0.27500
C563        C  0.02184974  0.77640359  0.56322234     0.36100
C564        C  0.02760628  0.73214156  0.62646251     0.36100
C565        C  0.04999066  0.65020117  0.40962383     0.36100
C566        C  0.05024217  0.60510262  0.47223377     0.36100
C567        C  0.05457249  0.79259560  0.42039969    -0.21400
C568        C  0.06199472  0.76235894  0.38393494    -0.21400
C569        C  0.05283035  0.62155514  0.65743663    -0.21400
C570        C  0.05542095  0.59094913  0.62098139    -0.21400
C571        C  0.00705671  0.79581136  0.60907277    -0.22500
C572        C  0.01077535  0.76788594  0.64903347    -0.22500
C573        C  0.04826493  0.61263189  0.38533477    -0.22500
C574        C  0.04924575  0.58422866  0.42469509    -0.22500
C575        C  0.02501970  0.79501265  0.51297910    -0.17800
C576        C  0.04975654  0.68789908  0.38268815    -0.17800
C577        C  0.04891466  0.58653088  0.52297631    -0.17800
C578        C  0.03472998  0.69525935  0.65437194    -0.17800
H579        H  0.05943378  0.82467518  0.41347396     0.15100
H580        H  0.07368158  0.76672580  0.34348940     0.15100
H581        H  0.05486737  0.61745082  0.69970077     0.15100
H582        H  0.05911412  0.55931862  0.63087958     0.15100
H583        H  0.99475374  0.82684557  0.61332381     0.13400
H584        H  0.00118840  0.77316754  0.68991004     0.13400
H585        H  0.04620965  0.60604007  0.34361620     0.13400
H586        H  0.04892401  0.55182746  0.41855191     0.13400
H587        H  0.02091868  0.71276680  0.48455909     0.26600
H588        H  0.03557148  0.66917625  0.54814434     0.26600
N589        N  0.72461434  0.73952263  0.94217196    -0.36100
N590        N  0.72623502  0.73884015  0.05668346    -0.56700
N591        N  0.72594548  0.65039597  0.05557461    -0.36100
N592        N  0.71817241  0.65123344  0.94130395    -0.56700
C593        C  0.71893851  0.77951461  0.95267016     0.27500
C594        C  0.70983044  0.73299409  0.89173706     0.27500
C595        C  0.71488094  0.65762269  0.10684138     0.27500
C596        C  0.71557916  0.61098375  0.04565099     0.27500
C597        C  0.73852420  0.77806924  0.04858840     0.36100
C598        C  0.73392201  0.73149673  0.10850556     0.36100
C599        C  0.72471503  0.65853160  0.88929666     0.36100
C600        C  0.72989994  0.61182967  0.94898667     0.36100
C601        C  0.70056155  0.79881756  0.90823354    -0.21400
C602        C  0.69426005  0.76943506  0.87001642    -0.21400
C603        C  0.69728856  0.62227580  0.12975961    -0.21400
C604        C  0.69813356  0.59277958  0.09125628    -0.21400
C605        C  0.75364804  0.79573654  0.09554731    -0.22500
C606        C  0.75071466  0.76627683  0.13344727    -0.22500
C607        C  0.74075715  0.62363330  0.86400241    -0.22500
C608        C  0.74396792  0.59405804  0.90180694    -0.22500
C609        C  0.73241798  0.79902901  0.00047344    -0.17800
C610        C  0.71402659  0.69569658  0.86385114    -0.17800
C611        C  0.72381147  0.59084825  0.99706510    -0.17800
C612        C  0.72373381  0.69442525  0.13424377    -0.17800
H613        H  0.69260135  0.83075459  0.90378173     0.15100
H614        H  0.68068140  0.77455758  0.83040121     0.15100
H615        H  0.68586058  0.61795340  0.17028405     0.15100
H616        H  0.68761684  0.56142458  0.09644841     0.15100
H617        H  0.76495846  0.82678257  0.10205210     0.13400
H618        H  0.75987102  0.77013022  0.17470551     0.13400
H619        H  0.74934892  0.61983845  0.82260162     0.13400
H620        H  0.75498306  0.56293272  0.89526598     0.13400
H621        H  0.74308308  0.71889979  0.96605072     0.26600
H622        H  0.74480118  0.66984646  0.03042070     0.26600
N623        N  0.71588783  0.73653317  0.44264389    -0.36100
N624        N  0.70810015  0.73445136  0.55726890    -0.56700
N625        N  0.70231818  0.64624140  0.55514174    -0.36100
N626        N  0.71615446  0.64822597  0.44043618    -0.56700
C627        C  0.72807431  0.77532636  0.45436911     0.27500
C628        C  0.72830652  0.72999801  0.39162771     0.27500
C629        C  0.70677612  0.65278828  0.60782796     0.27500
C630        C  0.71304435  0.60671276  0.54586922     0.27500
C631        C  0.70348325  0.77474813  0.54904470     0.36100
C632        C  0.69370771  0.72758487  0.60755719     0.36100
C633        C  0.71272020  0.65551160  0.38795390     0.36100
C634        C  0.70955858  0.60786313  0.44702112     0.36100
C635        C  0.74781998  0.79380387  0.40995081    -0.21400
C636        C  0.74784268  0.76525969  0.37037051    -0.21400
C637        C  0.71915805  0.61669434  0.63237701    -0.21400
C638        C  0.72229171  0.58767681  0.59368435    -0.21400
C639        C  0.68572410  0.79353578  0.59412127    -0.22500
C640        C  0.67903868  0.76363548  0.63098709    -0.22500
C641        C  0.70385014  0.61961365  0.36125848    -0.22500
C642        C  0.70285900  0.58951398  0.39829508    -0.22500
C643        C  0.71897389  0.79515060  0.50297570    -0.17800
C644        C  0.72101722  0.69348628  0.36323177    -0.17800
C645        C  0.71277162  0.58693975  0.49587361    -0.17800
C646        C  0.69930869  0.69027290  0.63447639    -0.17800
H647        H  0.76040834  0.82478780  0.40620409     0.15100
H648        H  0.76093914  0.76995646  0.33048412     0.15100
H649        H  0.72552336  0.61147858  0.67392273     0.15100
H650        H  0.73051717  0.55611243  0.60066035     0.15100
H651        H  0.67886428  0.82551058  0.60000748     0.13400
H652        H  0.66611570  0.76810945  0.67098375     0.13400
H653        H  0.69943789  0.61516576  0.31925531     0.13400
H654        H  0.69815261  0.55772240  0.38960872     0.13400
H655        H  0.69548973  0.71696025  0.46618539     0.26600
H656        H  0.68877961  0.66675387  0.52770743     0.26600
N657        N  0.53608894  0.26256194  0.07415870    -0.36100
N658        N  0.54073229  0.26483312  0.95929160    -0.56700
N659        N  0.55568581  0.35272640  0.96203493    -0.36100
N660        N  0.54529886  0.35071086  0.07698377    -0.56700
C661        C  0.51928042  0.22493609  0.06210842     0.27500
C662        C  0.52383966  0.27003017  0.12508671     0.27500
C663        C  0.55102450  0.34692507  0.90918755     0.27500
C664        C  0.54995917  0.39291227  0.97177587     0.27500
C665        C  0.54204431  0.22426716  0.96699647     0.36100
C666        C  0.55413418  0.27118484  0.90854348     0.36100
C667        C  0.54694179  0.34320972  0.12946103     0.36100
C668        C  0.55298050  0.39097350  0.07085327     0.36100
C669        C  0.49657344  0.20822324  0.10608534    -0.21400
C670        C  0.49955096  0.23660492  0.14579605    -0.21400
C671        C  0.54442617  0.38411271  0.88490925    -0.21400
C672        C  0.54439460  0.41298203  0.92402650    -0.21400
C673        C  0.55647488  0.20482131  0.92107082    -0.22500
C674        C  0.56445981  0.23449822  0.88421281    -0.22500
C675        C  0.55628205  0.37878913  0.15665776    -0.22500
C676        C  0.55917983  0.40896842  0.11991118    -0.22500
C677        C  0.52661922  0.20443633  0.01358523    -0.17800
C678        C  0.53470153  0.30585730  0.15377525    -0.17800
C679        C  0.55018589  0.41223715  0.02221587    -0.17800
C680        C  0.55265484  0.30903942  0.88222174    -0.17800
H681        H  0.47978006  0.17855667  0.10933755     0.15100
H682        H  0.48511826  0.23310819  0.18537204     0.15100
H683        H  0.53971251  0.39010000  0.84328656     0.15100
H684        H  0.54054962  0.44517781  0.91751564     0.15100
H685        H  0.56036287  0.17258369  0.91463247     0.13400
H686        H  0.57585264  0.22956981  0.84377382     0.13400
H687        H  0.55877199  0.38309537  0.19887449     0.13400
H688        H  0.56408024  0.44062264  0.12919393     0.13400
H689        H  0.55917182  0.28033225  0.05094456     0.26600
H690        H  0.56503397  0.33078678  0.98936242     0.26600
N691        N  0.51930378  0.26144590  0.57417358    -0.36100
N692        N  0.51493306  0.26377340  0.45957389    -0.56700
N693        N  0.52339791  0.35200743  0.46203705    -0.36100
N694        N  0.53408675  0.34921579  0.57637899    -0.56700
C695        C  0.52230093  0.22141312  0.56252004     0.27500
C696        C  0.53584968  0.26655924  0.62432118     0.27500
C697        C  0.53189545  0.34500792  0.41010241     0.27500
C698        C  0.53651577  0.39083124  0.47229203     0.27500
C699        C  0.50043273  0.22495798  0.46711896     0.36100
C700        C  0.50756881  0.27202116  0.40791246     0.36100
C701        C  0.52918219  0.34181795  0.62859899     0.36100
C702        C  0.52713573  0.38951869  0.57000438     0.36100
C703        C  0.54058504  0.20076067  0.60599076    -0.21400
C704        C  0.54939591  0.22922204  0.64480656    -0.21400
C705        C  0.55027281  0.38003478  0.38703968    -0.21400
C706        C  0.55283249  0.40898650  0.42615869    -0.21400
C707        C  0.48366182  0.20855218  0.42000075    -0.22500
C708        C  0.48831550  0.23829520  0.38252179    -0.22500
C709        C  0.51921130  0.37755495  0.65534565    -0.22500
C710        C  0.51789506  0.40770221  0.61828462    -0.22500
C711        C  0.50687565  0.20300523  0.51455170    -0.17800
C712        C  0.53597084  0.30364811  0.65298067    -0.17800
C713        C  0.53232129  0.41063309  0.52178643    -0.17800
C714        C  0.52102712  0.30857976  0.38249684    -0.17800
H715        H  0.54694322  0.16851164  0.60940031     0.15100
H716        H  0.56369419  0.22303303  0.68387668     0.15100
H717        H  0.56030583  0.38447989  0.34612106     0.15100
H718        H  0.56529192  0.43989383  0.42114497     0.15100
H719        H  0.47055839  0.17803523  0.41304478     0.13400
H720        H  0.47902856  0.23529516  0.34116248     0.13400
H721        H  0.51331511  0.38156594  0.69724217     0.13400
H722        H  0.51114018  0.43944770  0.62609586     0.13400
H723        H  0.50180643  0.28326611  0.55129146     0.26600
H724        H  0.50502057  0.33284679  0.48790053     0.26600
N725        N  0.71023600  0.26768903  0.05650047    -0.36100
N726        N  0.71650092  0.26399192  0.94248456    -0.56700
N727        N  0.71436153  0.35283873  0.94003919    -0.36100
N728        N  0.70293550  0.35593054  0.05430344    -0.56700
C729        C  0.70471886  0.22746974  0.04797624     0.27500
C730        C  0.69453119  0.27536854  0.10617451     0.27500
C731        C  0.70973096  0.34443991  0.88785328     0.27500
C732        C  0.70635246  0.39310906  0.94670339     0.27500
C733        C  0.72999343  0.22544945  0.95400480     0.36100
C734        C  0.72800120  0.27012606  0.89115476     0.36100
C735        C  0.70614383  0.35022963  0.10715275     0.36100
C736        C  0.71096612  0.39586825  0.04541308     0.36100
C737        C  0.68437807  0.20947326  0.09235469    -0.21400
C738        C  0.67774229  0.23974917  0.12903720    -0.21400
C739        C  0.69809861  0.37981632  0.86118395    -0.21400
C740        C  0.69698802  0.41041552  0.89780259    -0.21400
C741        C  0.74942996  0.20683010  0.90960420    -0.22500
C742        C  0.74808126  0.23505972  0.86980626    -0.22500
C743        C  0.71491800  0.38688027  0.13202801    -0.22500
C744        C  0.71718044  0.41573592  0.09323622    -0.22500
C745        C  0.72240243  0.20633331  0.00330258    -0.17800
C746        C  0.70048941  0.31252318  0.13335670    -0.17800
C747        C  0.71102617  0.41494429  0.99501770    -0.17800
C748        C  0.72002747  0.30666055  0.86292255    -0.17800
H749        H  0.67633937  0.17768315  0.09814248     0.15100
H750        H  0.66373879  0.23576495  0.16870109     0.15100
H751        H  0.69261210  0.38376482  0.81924790     0.15100
H752        H  0.69108349  0.44189712  0.88831958     0.15100
H753        H  0.76304363  0.17610145  0.90619460     0.13400
H754        H  0.76112943  0.23043088  0.82988320     0.13400
H755        H  0.71932475  0.39251672  0.17378621     0.13400
H756        H  0.72274140  0.44771973  0.10004302     0.13400
H757        H  0.73077978  0.28731121  0.03310686     0.26600
H758        H  0.72810488  0.33329500  0.96841538     0.26600
N759        N  0.72881401  0.26329489  0.43929863    -0.36100
N760        N  0.72839510  0.26276942  0.55437324    -0.56700
N761        N  0.72739885  0.35102374  0.55515912    -0.36100
N762        N  0.72144018  0.35131238  0.44040985    -0.56700
C763        C  0.72157144  0.22340731  0.44906138     0.27500
C764        C  0.71473868  0.27034909  0.38880933     0.27500
C765        C  0.71688588  0.34319443  0.60643133     0.27500
C766        C  0.71609231  0.39037543  0.54601358     0.27500
C767        C  0.74026109  0.22355298  0.54520018     0.36100
C768        C  0.73658405  0.26945029  0.60633310     0.36100
C769        C  0.72664555  0.34518769  0.38793971     0.36100
C770        C  0.72914487  0.39127359  0.44876901     0.36100
C771        C  0.70324256  0.20476050  0.40407765    -0.21400
C772        C  0.69858685  0.23440514  0.36620526    -0.21400
C773        C  0.69863016  0.37808189  0.63007207    -0.21400
C774        C  0.69863429  0.40791070  0.59212251    -0.21400
C775        C  0.75573110  0.20523818  0.59153759    -0.22500
C776        C  0.75353941  0.23429778  0.63017267    -0.22500
C777        C  0.73764354  0.38142108  0.36296337    -0.22500
C778        C  0.73919594  0.41058360  0.40145531    -0.22500
C779        C  0.73343561  0.20321183  0.49667152    -0.17800
C780        C  0.71851796  0.30785940  0.36181704    -0.17800
C781        C  0.72312123  0.41120832  0.49772377    -0.17800
C782        C  0.72639984  0.30619393  0.63315928    -0.17800
H783        H  0.69404133  0.17309336  0.39909237     0.15100
H784        H  0.68507384  0.22989523  0.32642311     0.15100
H785        H  0.68712813  0.38187874  0.67067460     0.15100
H786        H  0.68741653  0.43904831  0.59797691     0.15100
H787        H  0.76693243  0.17405540  0.59708088     0.13400
H788        H  0.76318393  0.22991807  0.67120113     0.13400
H789        H  0.74359350  0.38645147  0.32127776     0.13400
H790        H  0.74619462  0.44248423  0.39517709     0.13400
H791        H  0.74732229  0.28346725  0.46388629     0.26600
H792        H  0.74638413  0.33200192  0.52944635     0.26600
C793        C  0.75823002  0.33027156  0.72129461    -0.12900
C794        C  0.72545364  0.30579002  0.69218125     0.09300
C795        C  0.69226646  0.28047091  0.71948219    -0.12900
C796        C  0.69121684  0.28022739  0.77472242    -0.12900
C797        C  0.72315244  0.30542517  0.80388609     0.09300
C798        C  0.75726524  0.32994641  0.77654639    -0.12900
H799        H  0.78455634  0.34965645  0.70114827     0.13300
H800        H  0.66667398  0.26128054  0.69792433     0.13300
H801        H  0.66468605  0.26098298  0.79480767     0.13300
H802        H  0.78274946  0.34922800  0.79808710     0.13300
C803        C  0.74665061  0.28706084  0.27113622    -0.12900
C804        C  0.71295222  0.30825674  0.30321735     0.09300
C805        C  0.67461050  0.33061865  0.27928671    -0.12900
C806        C  0.67028260  0.33197503  0.22428949    -0.12900
C807        C  0.70411025  0.31100113  0.19216523     0.09300
C808        C  0.74221707  0.28837468  0.21616983    -0.12900
H809        H  0.77664949  0.26981904  0.28871318     0.13300
H810        H  0.64812325  0.34711495  0.30328987     0.13300
H811        H  0.64066554  0.34945247  0.20672511     0.13300
H812        H  0.76885147  0.27201856  0.19218950     0.13300
C813        C  0.58453302  0.32694482  0.79110512    -0.12900
C814        C  0.54877990  0.30816473  0.82315438     0.09300
C815        C  0.00964989  0.28700869  0.79827000    -0.12900
C816        C  0.00651749  0.28437716  0.74322552    -0.12900
C817        C  0.54221527  0.30300984  0.71168487     0.09300
C818        C  0.58124363  0.32448472  0.73597111    -0.12900
H819        H  0.61503839  0.34336147  0.80880422     0.13300
H820        H  0.98146177  0.27230393  0.82199214     0.13300
H821        H  0.97568601  0.26822229  0.72552720     0.13300
H822        H  0.60888433  0.33972020  0.71209330     0.13300
C823        C  0.56126568  0.28478860  0.29848417    -0.12900
C824        C  0.52456837  0.30814663  0.32373740     0.09300
C825        C  0.99016677  0.32870646  0.29224996    -0.12900
C826        C  0.99269989  0.32688227  0.23714476    -0.12900
C827        C  0.52972986  0.30508527  0.21247207     0.09300
C828        C  0.56372230  0.28317768  0.24332192    -0.12900
H829        H  0.58812840  0.26796919  0.32159329     0.13300
H830        H  0.96079013  0.34606327  0.31079827     0.13300
H831        H  0.96561905  0.34331973  0.21388059     0.13300
H832        H  0.59272958  0.26549315  0.22465644     0.13300
C833        C  0.75978271  0.52179929  0.51221196    -0.12900
C834        C  0.71650214  0.54169833  0.49472632     0.09300
C835        C  0.67637593  0.51828774  0.47670743    -0.12900
C836        C  0.67869627  0.47599913  0.47767104    -0.12900
C837        C  0.72088053  0.45624512  0.49749509     0.09300
C838        C  0.76168460  0.47939884  0.51429713    -0.12900
H839        H  0.79168477  0.53917366  0.52519383     0.13300
H840        H  0.64305384  0.53288057  0.46206963     0.13300
H841        H  0.64740642  0.45855864  0.46334219     0.13300
H842        H  0.79504748  0.46462096  0.52854760     0.13300
C843        C  0.68011135  0.52645511  0.97367025    -0.12900
C844        C  0.72177938  0.54577660  0.99534880     0.09300
C845        C  0.76140557  0.52213232  0.01411883    -0.12900
C846        C  0.75871646  0.47971032  0.01220474    -0.12900
C847        C  0.71576129  0.46022568  0.99294475     0.09300
C848        C  0.67687940  0.48419453  0.97307882    -0.12900
H849        H  0.64953068  0.54422264  0.95825700     0.13300
H850        H  0.79432227  0.53651835  0.03010747     0.13300
H851        H  0.78964932  0.46199556  0.02694046     0.13300
H852        H  0.64348852  0.47012755  0.95776413     0.13300
C853        C  0.67413041  0.66952091  0.78030744    -0.12900
C854        C  0.70869731  0.69531512  0.80506380     0.09300
C855        C  0.74024607  0.71887867  0.77347380    -0.12900
C856        C  0.73720698  0.71688482  0.71845059    -0.12900
C857        C  0.70228992  0.69151080  0.69355920     0.09300
C858        C  0.67089544  0.66772525  0.72516050    -0.12900
H859        H  0.64963791  0.65074972  0.80378684     0.13300
H860        H  0.76781559  0.73838992  0.79147517     0.13300
H861        H  0.76236454  0.73513805  0.69509370     0.13300
H862        H  0.64386070  0.64784491  0.70711616     0.13300
C863        C  0.75830648  0.67147956  0.22123188    -0.12900
C864        C  0.72314091  0.69423738  0.19303232     0.09300
C865        C  0.68893707  0.71826609  0.22092035    -0.12900
C866        C  0.68911526  0.71872482  0.27609667    -0.12900
C867        C  0.72332147  0.69502559  0.30438402     0.09300
C868        C  0.75863613  0.67209217  0.27640992    -0.14500
H869        H  0.78560767  0.65339033  0.20042735     0.13300
H870        H  0.66179626  0.73633746  0.19987460     0.13300
H871        H  0.66179765  0.73685772  0.29683176     0.13300
H872        H  0.78594410  0.65417358  0.29741004     0.13300
C873        C  0.00161744  0.52237038  0.50294657    -0.12900
C874        C  0.54416127  0.54114754  0.52544146     0.09300
C875        C  0.58127561  0.51669755  0.54799699    -0.12900
C876        C  0.57683578  0.47446892  0.54771370    -0.12900
C877        C  0.53588389  0.45570405  0.52364496     0.09300
C878        C  0.99803200  0.48007223  0.50113554    -0.12900
H879        H  0.97213877  0.54044703  0.48581549     0.13300
H880        H  0.61420301  0.53030769  0.56508452     0.13300
H881        H  0.60593563  0.45626987  0.56517078     0.13300
H882        H  0.96588715  0.46617284  0.48282378     0.13300
C883        C  0.57750763  0.52434508  0.04351003    -0.12900
C884        C  0.03522981  0.54235279  0.02182402     0.09300
C885        C  0.99666408  0.51757701  0.00322539    -0.12900
C886        C  0.00123022  0.47533850  0.00515764    -0.12900
C887        C  0.54430642  0.45737027  0.02411774     0.09300
C888        C  0.58228975  0.48216309  0.04420173    -0.12900
H889        H  0.60735793  0.54288143  0.05884838     0.13300
H890        H  0.96312136  0.53097000  0.98724591     0.13300
H891        H  0.97107027  0.45674567  0.99048043     0.13300
H892        H  0.61601645  0.46880187  0.05980371     0.13300
C893        C  0.56294001  0.71411832  0.79943027    -0.12900
C894        C  0.02451575  0.69202906  0.82445848     0.09300
C895        C  0.98849980  0.67255539  0.79334867    -0.12900
C896        C  0.99092208  0.67463553  0.73817726    -0.12900
C897        C  0.02966851  0.69587651  0.71316940     0.09300
C898        C  0.56538688  0.71593377  0.74431068    -0.12900
H899        H  0.59096319  0.72954761  0.82264551     0.13300
H900        H  0.95859502  0.65579786  0.81181466     0.13300
H901        H  0.96311784  0.65906404  0.71483518     0.13300
H902        H  0.59540161  0.73252288  0.72581492     0.13300
C903        C  0.00610205  0.70712684  0.29886706    -0.12900
C904        C  0.04663824  0.68818115  0.32380241     0.09300
C905        C  0.58522452  0.67026638  0.29268830    -0.12900
C906        C  0.58209621  0.67177342  0.23757411    -0.12900
C907        C  0.04091350  0.69183865  0.21270371     0.09300
C908        C  0.00338722  0.70911961  0.24384763    -0.12900
H909        H  0.97663525  0.72056206  0.32218269     0.13300
H910        H  0.61650531  0.65516784  0.31092973     0.13300
H911        H  0.61065578  0.65729501  0.21406779     0.13300
H912        H  0.97178110  0.72377362  0.22547331     0.13300
C913        C  0.74020139  0.12257612  0.49830327    -0.12800
C914        C  0.73708236  0.15914623  0.49645278    -0.14300
C915        C  0.73323099  0.87504450  0.50765705    -0.12800
C916        C  0.72680361  0.83877484  0.50596954    -0.14300
C917        C  0.73313808  0.16309911  0.00864030    -0.12800
C918        C  0.74176624  0.12712857  0.01272137    -0.14300
C919        C  0.74471767  0.87922401  0.00529888    -0.12800
C920        C  0.73878017  0.84293852  0.00134651    -0.14300
C921        C  0.49514227  0.12250511  0.51040912    -0.12800
C922        C  0.50003943  0.15903585  0.51291585    -0.14300
C923        C  0.01392715  0.83828921  0.50867902    -0.12800
C924        C  0.00502604  0.87428271  0.50573988    -0.14300
C925        C  0.51053334  0.12447004  0.01014897    -0.12800
C926        C  0.51727904  0.16081565  0.01136159    -0.14300
C927        C  0.00790060  0.87606955  0.01863659    -0.12800
C928        C  0.01286546  0.83952424  0.01936230    -0.14300
loop_ 
_geom_bond_atom_site_label_1 
_geom_bond_atom_site_label_2 
_geom_bond_distance 
_geom_bond_site_symmetry_2 
_ccdc_geom_bond_type 
O1           Cu9   2.026   1_565  S
O1           C11   1.278       .  A
O2           Cu9   2.022       .  S
O2          C476   1.278       .  A
O3           Cu9   2.011       .  S
O3           C13   1.278       .  A
O4         Cu473   2.000       .  S
O4           C14   1.277       .  A
O5          Cu10   1.992       .  S
O5           C14   1.275   1_566  A
O6         Cu474   2.005   1_545  S
O6           C13   1.277   1_556  A
O7          Cu10   2.030   1_545  S
O7           C12   1.279   1_556  A
O8          Cu10   2.032       .  S
O8          C475   1.279   1_556  A
Cu9         O468   2.000       .  S
Cu9        Cu474   2.376   1_544  S
Cu10        O470   2.005   1_455  S
Cu10       Cu473   2.376   1_566  S
C11         O472   1.279   1_554  A
C11         C463   1.449       .  S
C12         O466   1.278       .  A
C12         C461   1.449       .  S
C13          C40   1.467       .  S
C14          C39   1.457       .  S
O15         Cu23   2.020   1_545  S
O15          C25   1.277       .  A
O16         Cu23   2.020       .  S
O16          C26   1.277       .  A
O17         Cu23   2.002   1_455  S
O17          C27   1.278       .  A
O18        Cu487   2.012       .  S
O18          C28   1.279       .  A
O19         Cu24   2.004       .  S
O19          C28   1.276       .  A
O20        Cu488   1.991   1_445  S
O20          C27   1.275   1_545  A
O21        Cu488   2.038       .  S
O21          C26   1.280       .  A
O22        Cu488   2.038   1_545  S
O22          C25   1.281       .  A
Cu23        O482   2.011       .  S
Cu23       Cu488   2.376       .  S
Cu24        O484   1.990   1_565  S
Cu24        O485   2.038       .  S
Cu24        O486   2.039   1_565  S
Cu24       Cu487   2.376       .  S
C25         C457   1.450       .  S
C26         C924   1.450   1_655  S
C27          C53   1.458       .  S
C28          C54   1.466       .  S
O29         Cu37   2.002       .  S
O29          C39   1.278   1_556  A
O30         Cu37   2.013       .  S
O30          C40   1.279   1_556  A
O31         Cu37   2.006   1_565  S
O31          C41   1.275   1_556  A
O32         Cu37   2.013       .  S
O32          C42   1.276   1_556  A
O33         Cu38   2.043       .  S
O33          C42   1.281       .  A
O34         Cu38   2.040   1_565  S
O34          C41   1.282       .  A
O35         Cu38   2.005       .  S
O35          C40   1.276       .  A
O36         Cu38   1.990       .  S
O36          C39   1.275       .  A
Cu37        Cu38   2.376   1_556  S
C41         C455   1.446       .  S
C42         C454   1.449       .  S
O43         Cu51   2.002       .  S
O43          C53   1.278       .  A
O44         Cu51   2.012       .  S
O44          C54   1.279       .  A
O45         Cu51   2.012       .  S
O45          C55   1.276       .  A
O46         Cu51   2.014   1_545  S
O46          C56   1.276       .  A
O47         Cu52   2.031   1_545  S
O47          C56   1.280       .  A
O48         Cu52   2.029       .  S
O48          C55   1.279       .  A
O49         Cu52   2.003       .  S
O49          C54   1.276       .  A
O50         Cu52   1.993   1_545  S
O50          C53   1.275   1_545  A
Cu51        Cu52   2.377       .  S
C55         C451   1.443       .  S
C56         C449   1.446       .  S
N57          C62   1.357       .  A
N57          C61   1.354       .  A
N57          H89   1.036       .  S
N58          C65   1.355       .  A
N58          C66   1.355       .  A
N59          C64   1.353       .  A
N59          C63   1.353       .  A
N59          H90   1.039       .  S
N60          C67   1.353       .  A
N60          C68   1.353       .  A
C61          C69   1.387       .  A
C61          C77   1.420       .  A
C62          C78   1.420   1_556  A
C62          C70   1.388       .  A
C63          C71   1.387       .  A
C63          C80   1.414       .  A
C64          C79   1.415       .  A
C64          C72   1.387       .  A
C65          C77   1.420       .  A
C65          C73   1.387       .  A
C66          C80   1.417   1_556  A
C66          C74   1.385       .  A
C67          C75   1.386       .  A
C67          C78   1.416       .  A
C68          C76   1.386       .  A
C68          C79   1.417       .  A
C69          C70   1.377       .  A
C69          H81   1.082       .  S
C70          H82   1.082       .  S
C71          C72   1.374       .  A
C71          H83   1.082       .  S
C72          H84   1.082       .  S
C73          C74   1.376       .  A
C73          H85   1.082       .  S
C74          H86   1.082       .  S
C75          C76   1.376       .  A
C75          H87   1.082       .  S
C76          H88   1.082       .  S
C77         C430   1.494       .  S
C78         C464   1.463       .  S
C79         C443   1.490       .  S
C80         C420   1.490       .  S
N91          C96   1.355       .  A
N91          C95   1.357       .  A
N91         H123   1.035       .  S
N92          C99   1.355       .  A
N92         C100   1.355       .  A
N93          C98   1.358       .  A
N93          C97   1.357       .  A
N93         H124   1.029       .  S
N94         C101   1.356       .  A
N94         C102   1.356       .  A
C95         C103   1.386       .  A
C95         C111   1.417       .  A
C96         C112   1.420       .  A
C96         C104   1.388       .  A
C97         C105   1.386       .  A
C97         C114   1.424       .  A
C98         C113   1.427       .  A
C98         C106   1.389       .  A
C99         C111   1.418       .  A
C99         C107   1.386       .  A
C100        C114   1.421       .  A
C100        C108   1.387       .  A
C101        C109   1.386       .  A
C101        C112   1.422       .  A
C102        C110   1.388       .  A
C102        C113   1.427       .  A
C103        C104   1.375       .  A
C103        H115   1.082       .  S
C104        H116   1.083       .  S
C105        C106   1.371       .  A
C105        H117   1.082       .  S
C106        H118   1.079       .  S
C107        C108   1.375       .  A
C107        H119   1.082       .  S
C108        H120   1.082       .  S
C109        C110   1.371       .  A
C109        H121   1.081       .  S
C110        H122   1.082       .  S
C111        C459   1.465       .  S
C112        C440   1.497       .  S
C113        C874   1.502       .  S
C114        C433   1.497       .  S
N125        C130   1.356       .  A
N125        C129   1.356       .  A
N125        H157   1.038       .  S
N126        C133   1.353       .  A
N126        C134   1.353       .  A
N127        C132   1.355       .  A
N127        C131   1.355       .  A
N127        H158   1.038       .  S
N128        C135   1.353       .  A
N128        C136   1.354       .  A
C129        C137   1.386       .  A
C129        C145   1.419   1_556  A
C130        C146   1.424       .  A
C130        C138   1.389       .  A
C131        C139   1.388       .  A
C131        C148   1.421       .  A
C132        C147   1.417   1_554  A
C132        C140   1.386       .  A
C133        C145   1.413       .  A
C133        C141   1.387       .  A
C134        C148   1.416       .  A
C134        C142   1.387       .  A
C135        C143   1.387       .  A
C135        C146   1.417       .  A
C136        C144   1.385       .  A
C136        C147   1.413       .  A
C137        C138   1.381       .  A
C137        H149   1.082       .  S
C138        H150   1.082       .  S
C139        C140   1.379       .  A
C139        H151   1.082       .  S
C140        H152   1.082       .  S
C141        C142   1.371       .  A
C141        H153   1.082       .  S
C142        H154   1.082       .  S
C143        C144   1.372       .  A
C143        H155   1.082       .  S
C144        H156   1.082       .  S
C145        C456   1.460       .  S
C146        C390   1.498       .  S
C147        C380   1.491       .  S
C148        C400   1.492       .  S
N159        C164   1.353       .  A
N159        C163   1.356       .  A
N159        H191   1.038       .  S
N160        C167   1.353       .  A
N160        C168   1.352       .  A
N161        C166   1.357       .  A
N161        C165   1.359       .  A
N161        H192   1.038       .  S
N162        C169   1.356       .  A
N162        C170   1.356       .  A
C163        C171   1.387       .  A
C163        C179   1.416       .  A
C164        C180   1.417       .  A
C164        C172   1.387       .  A
C165        C173   1.386       .  A
C165        C182   1.423       .  A
C166        C181   1.426       .  A
C166        C174   1.389       .  A
C167        C179   1.411       .  A
C167        C175   1.385       .  A
C168        C182   1.416       .  A
C168        C176   1.387       .  A
C169        C177   1.386       .  A
C169        C180   1.421       .  A
C170        C178   1.388       .  A
C170        C181   1.422       .  A
C171        C172   1.377       .  A
C171        H183   1.082       .  S
C172        H184   1.082       .  S
C173        C174   1.373       .  A
C173        H185   1.081       .  S
C174        H186   1.080       .  S
C175        C176   1.373       .  A
C175        H187   1.082       .  S
C176        H188   1.082       .  S
C177        C178   1.369       .  A
C177        H189   1.082       .  S
C178        H190   1.080       .  S
C179        C452   1.458       .  S
C180        C403   1.494       .  S
C181        C370   1.498       .  S
C182        C393   1.500       .  S
N193        C198   1.355       .  A
N193        C197   1.357       .  A
N193        H225   1.038       .  S
N194        C201   1.355       .  A
N194        C202   1.353       .  A
N195        C200   1.359       .  A
N195        C199   1.360       .  A
N195        H226   1.034       .  S
N196        C203   1.354       .  A
N196        C204   1.355       .  A
C197        C205   1.387   1_455  A
C197        C213   1.417       .  A
C198        C214   1.418       .  A
C198        C206   1.387   1_455  A
C199        C207   1.386       .  A
C199        C216   1.427       .  A
C200        C215   1.430   1_556  A
C200        C208   1.389       .  A
C201        C213   1.414   1_556  A
C201        C209   1.385       .  A
C202        C216   1.419       .  A
C202        C210   1.387       .  A
C203        C211   1.385       .  A
C203        C214   1.418       .  A
C204        C212   1.388       .  A
C204        C215   1.422       .  A
C205        C206   1.377       .  A
C205        H217   1.082       .  S
C206        H218   1.082       .  S
C207        C208   1.375       .  A
C207        H219   1.081       .  S
C208        H220   1.081       .  S
C209        C210   1.372       .  A
C209        H221   1.082       .  S
C210        H222   1.082       .  S
C211        C212   1.368       .  A
C211        H223   1.082       .  S
C212        H224   1.080       .  S
C213        C462   1.463       .  S
C214        C363   1.493       .  S
C215        C423   1.501       .  S
C216        C350   1.503       .  S
N227        C232   1.358       .  A
N227        C231   1.357       .  A
N227        H259   1.038       .  S
N228        C235   1.354       .  A
N228        C236   1.353       .  A
N229        C234   1.355       .  A
N229        C233   1.356       .  A
N229        H260   1.037       .  S
N230        C237   1.354       .  A
N230        C238   1.354       .  A
C231        C239   1.387       .  A
C231        C247   1.421       .  A
C232        C248   1.424       .  A
C232        C240   1.387       .  A
C233        C241   1.388       .  A
C233        C250   1.422       .  A
C234        C249   1.419       .  A
C234        C242   1.387       .  A
C235        C247   1.416       .  A
C235        C243   1.387   1_455  A
C236        C250   1.417       .  A
C236        C244   1.387   1_455  A
C237        C245   1.387       .  A
C237        C248   1.417       .  A
C238        C246   1.386       .  A
C238        C249   1.415       .  A
C239        C240   1.381       .  A
C239        H251   1.082       .  S
C240        H252   1.082       .  S
C241        C242   1.379       .  A
C241        H253   1.082       .  S
C242        H254   1.082       .  S
C243        C244   1.373       .  A
C243        H255   1.082       .  S
C244        H256   1.083       .  S
C245        C246   1.370       .  A
C245        H257   1.082       .  S
C246        H258   1.082       .  S
C247        C458   1.464   1_455  S
C248        C353   1.499       .  S
C249        C413   1.492       .  S
C250        C360   1.492       .  S
N261        C266   1.352       .  A
N261        C265   1.354       .  A
N261        H293   1.038       .  S
N262        C269   1.355       .  A
N262        C270   1.353       .  A
N263        C268   1.358       .  A
N263        C267   1.358       .  A
N263        H294   1.035       .  S
N264        C271   1.356       .  A
N264        C272   1.356       .  A
C265        C273   1.386       .  A
C265        C281   1.412       .  A
C266        C282   1.416       .  A
C266        C274   1.388       .  A
C267        C275   1.386       .  A
C267        C284   1.425       .  A
C268        C283   1.427       .  A
C268        C276   1.389       .  A
C269        C281   1.415   1_556  A
C269        C277   1.385       .  A
C270        C284   1.419       .  A
C270        C278   1.387       .  A
C271        C279   1.385       .  A
C271        C282   1.421       .  A
C272        C280   1.389       .  A
C272        C283   1.426   1_554  A
C273        C274   1.377       .  A
C273        H285   1.082       .  S
C274        H286   1.082       .  S
C275        C276   1.373       .  A
C275        H287   1.082       .  S
C276        H288   1.079       .  S
C277        C278   1.375       .  A
C277        H289   1.082       .  S
C278        H290   1.082       .  S
C279        C280   1.372       .  A
C279        H291   1.081       .  S
C280        H292   1.081       .  S
C281        C453   1.463       .  S
C282        C343   1.496       .  S
C283        C383   1.503       .  S
C284        C333   1.499       .  S
N295        C300   1.355       .  A
N295        C299   1.356       .  A
N295        H327   1.039       .  S
N296        C303   1.354       .  A
N296        C304   1.354       .  A
N297        C302   1.355       .  A
N297        C301   1.356       .  A
N297        H328   1.039       .  S
N298        C305   1.353       .  A
N298        C306   1.353       .  A
C299        C307   1.386       .  A
C299        C315   1.417       .  A
C300        C316   1.420       .  A
C300        C308   1.388       .  A
C301        C309   1.388       .  A
C301        C318   1.421       .  A
C302        C317   1.418       .  A
C302        C310   1.386       .  A
C303        C315   1.414       .  A
C303        C311   1.386       .  A
C304        C318   1.417       .  A
C304        C312   1.386       .  A
C305        C313   1.387       .  A
C305        C316   1.417       .  A
C306        C314   1.386       .  A
C306        C317   1.414       .  A
C307        C308   1.378       .  A
C307        H319   1.082       .  S
C308        H320   1.082       .  S
C309        C310   1.378       .  A
C309        H321   1.082       .  S
C310        H322   1.082       .  S
C311        C312   1.372       .  A
C311        H323   1.082       .  S
C312        H324   1.082       .  S
C313        C314   1.371       .  A
C313        H325   1.082       .  S
C314        H326   1.082       .  S
C315        C450   1.460       .  S
C316        C340   1.495       .  S
C317        C373   1.489       .  S
C318        C330   1.497       .  S
C329        C330   1.405       .  A
C329        C334   1.401       .  A
C329        H335   1.083       .  S
C330        C331   1.406       .  A
C331        C332   1.401       .  A
C331        H336   1.083       .  S
C332        C333   1.406       .  A
C332        H337   1.083       .  S
C333        C334   1.407       .  A
C334        H338   1.083       .  S
C339        C340   1.404       .  A
C339        C344   1.400       .  A
C339        H345   1.083       .  S
C340        C341   1.406       .  A
C341        C342   1.400       .  A
C341        H346   1.083       .  S
C342        C343   1.403       .  A
C342        H347   1.079       .  S
C343        C344   1.406       .  A
C344        H348   1.083       .  S
C349        C350   1.404       .  A
C349        C354   1.404       .  A
C349        H355   1.081       .  S
C350        C815   1.409       .  A
C351        C352   1.401       .  A
C351        C814   1.408       .  A
C351        H356   1.083       .  S
C352        C817   1.403       .  A
C352        H357   1.083       .  S
C353        C354   1.409       .  A
C353        C816   1.403       .  A
C354        H358   1.083       .  S
C359        C360   1.406       .  A
C359        C364   1.401       .  A
C359        H365   1.083       .  S
C360        C825   1.403   1_455  A
C361        C362   1.401       .  A
C361        C824   1.404       .  A
C361        H366   1.083       .  S
C362        C827   1.406       .  A
C362        H367   1.083       .  S
C363        C364   1.404       .  A
C363        C826   1.406   1_455  A
C364        H368   1.083       .  S
C369        C370   1.408       .  A
C369        C374   1.403       .  A
C369        H375   1.083       .  S
C370        C371   1.404       .  A
C371        C372   1.399       .  A
C371        H376   1.083       .  S
C372        C373   1.401       .  A
C372        H377   1.082       .  S
C373        C374   1.403       .  A
C374        H378   1.083       .  S
C379        C380   1.402       .  A
C379        C384   1.399       .  A
C379        H385   1.083       .  S
C380        C381   1.404   1_556  A
C381        C382   1.404       .  A
C381        H386   1.083       .  S
C382        C383   1.409   1_554  A
C382        H387   1.083       .  S
C383        C384   1.405       .  A
C384        H388   1.083       .  S
C389        C390   1.408       .  A
C389        C394   1.402       .  A
C389        H395   1.083       .  S
C390        C391   1.403       .  A
C391        C392   1.399       .  A
C391        H396   1.083       .  S
C392        C393   1.408       .  A
C392        H397   1.083       .  S
C393        C394   1.405       .  A
C394        H398   1.081       .  S
C399        C400   1.404       .  A
C399        C404   1.399       .  A
C399        H405   1.083       .  S
C400        C401   1.405       .  A
C401        C402   1.400       .  A
C401        H406   1.083       .  S
C402        C403   1.405       .  A
C402        H407   1.083       .  S
C403        C404   1.405       .  A
C404        H408   1.083       .  S
C409        C414   1.402       .  A
C409        C874   1.408       .  A
C409        H415   1.083       .  S
C410        C577   1.502       .  S
C410        C411   1.405       .  A
C410        C873   1.408       .  A
C411        C412   1.400       .  A
C411        H416   1.083       .  S
C412        C413   1.403       .  A
C412        H417   1.082       .  S
C413        C878   1.403   1_455  A
C414        C877   1.403       .  A
C414        H418   1.083       .  S
C419        C424   1.400       .  A
C419        C884   1.402       .  A
C419        H425   1.082       .  S
C420        C421   1.403       .  A
C420        C883   1.402       .  A
C421        C422   1.402       .  A
C421        H426   1.083   1_554  S
C422        C887   1.408       .  A
C422        H427   1.083   1_554  S
C423        C424   1.405       .  A
C423        C886   1.408       .  A
C424        H428   1.083       .  S
C429        C434   1.401       .  A
C429        C894   1.405       .  A
C429        H435   1.083       .  S
C430        C431   1.405       .  A
C430        C893   1.405       .  A
C431        C432   1.402       .  A
C431        H436   1.083       .  S
C432        C433   1.407       .  A
C432        H437   1.083       .  S
C433        C898   1.404       .  A
C434        C897   1.403       .  A
C434        H438   1.083       .  S
C439        C440   1.407       .  A
C439        C444   1.399       .  A
C439        H445   1.083       .  S
C440        C905   1.404       .  A
C441        C442   1.401       .  A
C441        C904   1.404       .  A
C441        H446   1.082       .  S
C442        C907   1.404       .  A
C442        H447   1.083       .  S
C443        C444   1.402       .  A
C443        C906   1.405       .  A
C444        H448   1.083       .  S
C449        C450   1.212       .  T
C451        C452   1.211       .  T
C453        C454   1.215       .  T
C455        C456   1.213       .  T
C457        C458   1.215       .  T
C459        C460   1.215       .  T
C460        C490   1.450       .  S
C461        C462   1.214       .  T
C463        C464   1.214       .  T
O465       Cu473   2.027   1_565  S
O465        C475   1.278       .  A
O466       Cu473   2.022       .  S
O467       Cu473   2.011   1_655  S
O467        C477   1.278       .  A
O468        C478   1.277       .  A
O469       Cu474   1.990       .  S
O469        C478   1.275   1_566  A
O470        C477   1.277   1_566  A
O471       Cu474   2.031   1_545  S
O471        C476   1.279   1_556  A
O472       Cu474   2.032       .  S
C475        C927   1.450       .  S
C476        C925   1.449       .  S
C477        C504   1.467       .  S
C478        C503   1.456       .  S
O479       Cu487   2.020   1_545  S
O479        C489   1.277       .  A
O480       Cu487   2.021       .  S
O480        C490   1.277       .  A
O481       Cu487   2.001       .  S
O481        C491   1.278       .  A
O482        C492   1.278       .  A
O483       Cu488   2.004       .  S
O483        C492   1.276       .  A
O484        C491   1.275   1_545  A
O485        C490   1.280       .  A
O486        C489   1.281       .  A
C489        C921   1.451       .  S
C491        C517   1.457       .  S
C492        C518   1.466       .  S
O493       Cu501   2.001       .  S
O493        C503   1.278   1_556  A
O494       Cu501   2.013       .  S
O494        C504   1.279   1_556  A
O495       Cu501   2.007   1_565  S
O495        C505   1.275   1_556  A
O496       Cu501   2.014       .  S
O496        C506   1.276   1_556  A
O497       Cu502   2.044       .  S
O497        C506   1.282       .  A
O498       Cu502   2.041   1_565  S
O498        C505   1.282       .  A
O499       Cu502   2.004       .  S
O499        C504   1.276       .  A
O500       Cu502   1.989       .  S
O500        C503   1.274       .  A
Cu501      Cu502   2.376   1_556  S
C505        C919   1.447       .  S
C506        C918   1.450       .  S
O507       Cu515   2.002       .  S
O507        C517   1.278       .  A
O508       Cu515   2.012       .  S
O508        C518   1.279       .  A
O509       Cu515   2.013       .  S
O509        C519   1.276       .  A
O510       Cu515   2.014   1_545  S
O510        C520   1.276       .  A
O511       Cu516   2.030   1_545  S
O511        C520   1.280       .  A
O512       Cu516   2.028       .  S
O512        C519   1.279       .  A
O513       Cu516   2.001       .  S
O513        C518   1.276       .  A
O514       Cu516   1.991   1_545  S
O514        C517   1.275   1_545  A
Cu515      Cu516   2.377       .  S
C519        C915   1.444       .  S
C520        C913   1.445       .  S
N521        C526   1.357       .  A
N521        C525   1.354       .  A
N521        H553   1.037       .  S
N522        C529   1.355       .  A
N522        C530   1.355       .  A
N523        C528   1.353       .  A
N523        C527   1.353       .  A
N523        H554   1.039       .  S
N524        C531   1.354       .  A
N524        C532   1.353       .  A
C525        C533   1.387   1_455  A
C525        C541   1.419       .  A
C526        C542   1.420   1_556  A
C526        C534   1.388   1_455  A
C527        C535   1.387       .  A
C527        C544   1.414       .  A
C528        C543   1.415       .  A
C528        C536   1.387       .  A
C529        C541   1.420       .  A
C529        C537   1.387       .  A
C530        C544   1.418   1_556  A
C530        C538   1.385       .  A
C531        C539   1.386       .  A
C531        C542   1.416       .  A
C532        C540   1.386       .  A
C532        C543   1.417       .  A
C533        C534   1.377       .  A
C533        H545   1.083       .  S
C534        H546   1.082       .  S
C535        C536   1.374       .  A
C535        H547   1.082       .  S
C536        H548   1.082       .  S
C537        C538   1.376       .  A
C537        H549   1.082       .  S
C538        H550   1.082       .  S
C539        C540   1.376       .  A
C539        H551   1.082       .  S
C540        H552   1.082       .  S
C541        C894   1.494       .  S
C542        C928   1.463       .  S
C543        C907   1.489       .  S
C544        C884   1.490       .  S
N555        C560   1.355       .  A
N555        C559   1.357       .  A
N555        H587   1.035       .  S
N556        C563   1.355       .  A
N556        C564   1.355       .  A
N557        C562   1.358       .  A
N557        C561   1.357       .  A
N557        H588   1.028       .  S
N558        C565   1.355       .  A
N558        C566   1.355       .  A
C559        C567   1.386       .  A
C559        C575   1.417       .  A
C560        C576   1.420       .  A
C560        C568   1.388       .  A
C561        C569   1.386       .  A
C561        C578   1.426       .  A
C562        C577   1.428       .  A
C562        C570   1.389       .  A
C563        C575   1.418       .  A
C563        C571   1.385       .  A
C564        C578   1.422       .  A
C564        C572   1.387       .  A
C565        C573   1.386       .  A
C565        C576   1.421       .  A
C566        C574   1.388       .  A
C566        C577   1.427       .  A
C567        C568   1.375       .  A
C567        H579   1.082       .  S
C568        H580   1.083       .  S
C569        C570   1.371       .  A
C569        H581   1.082       .  S
C570        H582   1.079       .  S
C571        C572   1.375       .  A
C571        H583   1.082   1_455  S
C572        H584   1.082       .  S
C573        C574   1.371       .  A
C573        H585   1.081       .  S
C574        H586   1.081       .  S
C575        C923   1.464       .  S
C576        C904   1.496       .  S
C578        C897   1.497       .  S
N589        C594   1.356       .  A
N589        C593   1.356       .  A
N589        H621   1.038       .  S
N590        C597   1.353       .  A
N590        C598   1.352       .  A
N591        C596   1.355       .  A
N591        C595   1.355       .  A
N591        H622   1.038       .  S
N592        C599   1.352       .  A
N592        C600   1.353       .  A
C593        C601   1.386       .  A
C593        C609   1.419   1_556  A
C594        C610   1.424       .  A
C594        C602   1.389       .  A
C595        C603   1.388       .  A
C595        C612   1.420       .  A
C596        C611   1.417   1_554  A
C596        C604   1.386       .  A
C597        C609   1.413       .  A
C597        C605   1.387       .  A
C598        C612   1.415       .  A
C598        C606   1.387       .  A
C599        C607   1.387       .  A
C599        C610   1.417       .  A
C600        C608   1.385       .  A
C600        C611   1.413       .  A
C601        C602   1.381       .  A
C601        H613   1.082       .  S
C602        H614   1.082       .  S
C603        C604   1.379       .  A
C603        H615   1.082       .  S
C604        H616   1.082       .  S
C605        C606   1.371       .  A
C605        H617   1.082       .  S
C606        H618   1.082       .  S
C607        C608   1.372       .  A
C607        H619   1.082       .  S
C608        H620   1.082       .  S
C609        C920   1.461       .  S
C610        C854   1.498       .  S
C611        C844   1.490       .  S
C612        C864   1.491       .  S
N623        C628   1.353       .  A
N623        C627   1.356       .  A
N623        H655   1.037       .  S
N624        C631   1.353       .  A
N624        C632   1.352       .  A
N625        C630   1.357       .  A
N625        C629   1.359       .  A
N625        H656   1.037       .  S
N626        C633   1.356       .  A
N626        C634   1.356       .  A
C627        C635   1.387       .  A
C627        C643   1.416       .  A
C628        C644   1.418       .  A
C628        C636   1.387       .  A
C629        C637   1.386       .  A
C629        C646   1.424       .  A
C630        C645   1.426       .  A
C630        C638   1.389       .  A
C631        C643   1.412       .  A
C631        C639   1.385       .  A
C632        C646   1.417       .  A
C632        C640   1.387       .  A
C633        C641   1.386       .  A
C633        C644   1.421       .  A
C634        C642   1.388       .  A
C634        C645   1.422       .  A
C635        C636   1.376       .  A
C635        H647   1.082       .  S
C636        H648   1.082       .  S
C637        C638   1.374       .  A
C637        H649   1.081       .  S
C638        H650   1.080       .  S
C639        C640   1.373       .  A
C639        H651   1.082       .  S
C640        H652   1.082       .  S
C641        C642   1.369       .  A
C641        H653   1.082       .  S
C642        H654   1.080       .  S
C643        C916   1.458       .  S
C644        C867   1.495       .  S
C645        C834   1.498       .  S
C646        C857   1.501       .  S
N657        C662   1.355       .  A
N657        C661   1.357       .  A
N657        H689   1.038       .  S
N658        C665   1.355       .  A
N658        C666   1.353       .  A
N659        C664   1.359       .  A
N659        C663   1.359       .  A
N659        H690   1.034       .  S
N660        C667   1.355       .  A
N660        C668   1.355       .  A
C661        C669   1.387       .  A
C661        C677   1.418       .  A
C662        C678   1.419       .  A
C662        C670   1.387       .  A
C663        C671   1.386       .  A
C663        C680   1.426       .  A
C664        C679   1.429   1_556  A
C664        C672   1.389       .  A
C665        C677   1.414   1_556  A
C665        C673   1.385       .  A
C666        C680   1.419       .  A
C666        C674   1.387       .  A
C667        C675   1.385       .  A
C667        C678   1.419       .  A
C668        C676   1.388       .  A
C668        C679   1.422       .  A
C669        C670   1.378       .  A
C669        H681   1.082       .  S
C670        H682   1.082       .  S
C671        C672   1.375       .  A
C671        H683   1.081       .  S
C672        H684   1.081       .  S
C673        C674   1.372       .  A
C673        H685   1.082       .  S
C674        H686   1.082       .  S
C675        C676   1.368       .  A
C675        H687   1.082       .  S
C676        H688   1.080       .  S
C677        C926   1.464       .  S
C678        C827   1.495       .  S
C679        C887   1.500       .  S
C680        C814   1.502       .  S
N691        C696   1.358       .  A
N691        C695   1.357       .  A
N691        H723   1.038       .  S
N692        C699   1.354       .  A
N692        C700   1.353       .  A
N693        C698   1.355       .  A
N693        C697   1.356       .  A
N693        H724   1.037       .  S
N694        C701   1.353       .  A
N694        C702   1.354       .  A
C695        C703   1.387       .  A
C695        C711   1.421       .  A
C696        C712   1.424       .  A
C696        C704   1.387       .  A
C697        C705   1.388       .  A
C697        C714   1.422       .  A
C698        C713   1.419       .  A
C698        C706   1.387       .  A
C699        C711   1.416       .  A
C699        C707   1.387       .  A
C700        C714   1.417       .  A
C700        C708   1.387       .  A
C701        C709   1.387       .  A
C701        C712   1.417       .  A
C702        C710   1.386       .  A
C702        C713   1.415       .  A
C703        C704   1.381       .  A
C703        H715   1.082       .  S
C704        H716   1.082       .  S
C705        C706   1.379       .  A
C705        H717   1.082       .  S
C706        H718   1.082       .  S
C707        C708   1.373       .  A
C707        H719   1.082       .  S
C708        H720   1.083       .  S
C709        C710   1.370       .  A
C709        H721   1.082       .  S
C710        H722   1.082       .  S
C711        C922   1.465       .  S
C712        C817   1.498       .  S
C713        C877   1.493       .  S
C714        C824   1.493       .  S
N725        C730   1.352       .  A
N725        C729   1.354       .  A
N725        H757   1.038       .  S
N726        C733   1.356       .  A
N726        C734   1.353       .  A
N727        C732   1.358       .  A
N727        C731   1.358       .  A
N727        H758   1.035       .  S
N728        C735   1.356       .  A
N728        C736   1.356       .  A
C729        C737   1.386       .  A
C729        C745   1.412       .  A
C730        C746   1.416       .  A
C730        C738   1.388       .  A
C731        C739   1.386       .  A
C731        C748   1.425       .  A
C732        C747   1.427       .  A
C732        C740   1.389       .  A
C733        C745   1.416   1_556  A
C733        C741   1.385       .  A
C734        C748   1.420       .  A
C734        C742   1.387       .  A
C735        C743   1.385       .  A
C735        C746   1.421       .  A
C736        C744   1.388       .  A
C736        C747   1.425   1_554  A
C737        C738   1.377       .  A
C737        H749   1.082       .  S
C738        H750   1.082       .  S
C739        C740   1.372       .  A
C739        H751   1.082       .  S
C740        H752   1.079       .  S
C741        C742   1.375       .  A
C741        H753   1.082       .  S
C742        H754   1.082       .  S
C743        C744   1.372       .  A
C743        H755   1.082       .  S
C744        H756   1.081       .  S
C745        C917   1.463       .  S
C746        C807   1.495       .  S
C747        C847   1.502       .  S
C748        C797   1.500       .  S
N759        C764   1.355       .  A
N759        C763   1.355       .  A
N759        H791   1.039       .  S
N760        C767   1.354       .  A
N760        C768   1.354       .  A
N761        C766   1.355       .  A
N761        C765   1.356       .  A
N761        H792   1.039       .  S
N762        C769   1.353       .  A
N762        C770   1.353       .  A
C763        C771   1.386       .  A
C763        C779   1.416       .  A
C764        C780   1.420       .  A
C764        C772   1.388       .  A
C765        C773   1.388       .  A
C765        C782   1.421       .  A
C766        C781   1.418       .  A
C766        C774   1.386       .  A
C767        C779   1.414       .  A
C767        C775   1.386       .  A
C768        C782   1.417       .  A
C768        C776   1.386       .  A
C769        C777   1.387       .  A
C769        C780   1.416       .  A
C770        C778   1.386       .  A
C770        C781   1.414       .  A
C771        C772   1.378       .  A
C771        H783   1.082       .  S
C772        H784   1.082       .  S
C773        C774   1.378       .  A
C773        H785   1.082       .  S
C774        H786   1.082       .  S
C775        C776   1.372       .  A
C775        H787   1.082       .  S
C776        H788   1.082       .  S
C777        C778   1.371       .  A
C777        H789   1.082       .  S
C778        H790   1.082       .  S
C779        C914   1.459       .  S
C780        C804   1.494       .  S
C781        C837   1.489       .  S
C782        C794   1.497       .  S
C793        C794   1.405       .  A
C793        C798   1.401       .  A
C793        H799   1.083       .  S
C794        C795   1.406       .  A
C795        C796   1.401       .  A
C795        H800   1.083       .  S
C796        C797   1.406       .  A
C796        H801   1.083       .  S
C797        C798   1.407       .  A
C798        H802   1.083       .  S
C803        C804   1.404       .  A
C803        C808   1.400       .  A
C803        H809   1.083       .  S
C804        C805   1.406       .  A
C805        C806   1.400       .  A
C805        H810   1.083       .  S
C806        C807   1.403       .  A
C806        H811   1.080       .  S
C807        C808   1.407       .  A
C808        H812   1.083       .  S
C813        C814   1.404       .  A
C813        C818   1.403       .  A
C813        H819   1.081       .  S
C815        C816   1.401       .  A
C815        H820   1.083   1_455  S
C816        H821   1.083   1_455  S
C817        C818   1.408       .  A
C818        H822   1.083       .  S
C823        C824   1.406       .  A
C823        C828   1.401       .  A
C823        H829   1.083       .  S
C825        C826   1.400       .  A
C825        H830   1.083       .  S
C826        H831   1.083       .  S
C827        C828   1.404       .  A
C828        H832   1.083       .  S
C833        C834   1.408       .  A
C833        C838   1.403       .  A
C833        H839   1.083       .  S
C834        C835   1.404       .  A
C835        C836   1.399       .  A
C835        H840   1.083       .  S
C836        C837   1.401       .  A
C836        H841   1.082       .  S
C837        C838   1.403       .  A
C838        H842   1.083       .  S
C843        C844   1.401       .  A
C843        C848   1.399       .  A
C843        H849   1.083       .  S
C844        C845   1.404   1_556  A
C845        C846   1.404       .  A
C845        H850   1.083       .  S
C846        C847   1.409   1_554  A
C846        H851   1.083       .  S
C847        C848   1.405       .  A
C848        H852   1.083       .  S
C853        C854   1.408       .  A
C853        C858   1.402       .  A
C853        H859   1.083       .  S
C854        C855   1.403       .  A
C855        C856   1.399       .  A
C855        H860   1.083       .  S
C856        C857   1.408       .  A
C856        H861   1.083       .  S
C857        C858   1.405       .  A
C858        H862   1.081       .  S
C863        C864   1.404       .  A
C863        C868   1.399       .  A
C863        H869   1.083       .  S
C864        C865   1.405       .  A
C865        C866   1.399       .  A
C865        H870   1.083       .  S
C866        C867   1.405       .  A
C866        H871   1.083       .  S
C867        C868   1.406       .  A
C868        H872   1.083       .  S
C873        C878   1.401   1_455  A
C873        H879   1.083   1_455  S
C874        C875   1.405       .  A
C875        C876   1.400       .  A
C875        H880   1.083       .  S
C876        C877   1.403       .  A
C876        H881   1.081       .  S
C878        H882   1.083       .  S
C883        C888   1.399       .  A
C883        H889   1.082       .  S
C884        C885   1.402   1_455  A
C885        C886   1.402   1_655  A
C885        H890   1.083   1_554  S
C886        H891   1.083   1_454  S
C887        C888   1.404       .  A
C888        H892   1.083       .  S
C893        C898   1.401       .  A
C893        H899   1.083       .  S
C894        C895   1.405   1_455  A
C895        C896   1.402       .  A
C895        H900   1.083       .  S
C896        C897   1.408   1_655  A
C896        H901   1.083       .  S
C898        H902   1.083       .  S
C903        C904   1.407       .  A
C903        C908   1.399       .  A
C903        H909   1.083   1_455  S
C905        C906   1.401       .  A
C905        H910   1.081       .  S
C906        H911   1.083       .  S
C907        C908   1.402       .  A
C908        H912   1.083   1_455  S
C913        C914   1.212       .  T
C915        C916   1.211       .  T
C917        C918   1.215       .  T
C919        C920   1.213       .  T
C921        C922   1.216       .  T
C923        C924   1.215       .  T
C925        C926   1.215       .  T
C927        C928   1.215       .  T
