geometry optimzed in LAMMPS
_audit_creation_date              2020-11-30 
_audit_creation_method            'lammps2cif' 
_symmetry_space_group_name_H-M    'P1' 
_symmetry_Int_Tables_number       1 
_symmetry_cell_setting            triclinic 
loop_ 
_symmetry_equiv_pos_as_xyz 
  x,y,z 
_cell_length_a                    40.57448557 
_cell_length_b                    40.44022764682283 
_cell_length_c                    25.665273799472864 
_cell_angle_alpha                 91.89576415783107 
_cell_angle_beta                  90.20425579882273 
_cell_angle_gamma                 118.80658389505601 
loop_ 
_atom_site_label 
_atom_site_type_symbol 
_atom_site_fract_x 
_atom_site_fract_y 
_atom_site_fract_z 
_atom_site_charge 
C1          C  0.87589451  0.70931505  0.80236532     0.04100
C2          C  0.83762413  0.69126880  0.78743234    -0.12000
C3          C  0.82241654  0.65869000  0.75499402     0.01600
C4          C  0.84527470  0.64357521  0.73814916    -0.10600
C5          C  0.88318579  0.65992339  0.75490480     0.04100
C6          C  0.89847804  0.69345137  0.78611139    -0.10000
H7          H  0.81985574  0.70319490  0.79942488     0.09700
H8          H  0.83297326  0.61876139  0.71223956     0.07200
H9          H  0.92761231  0.70666840  0.79916346     0.07100
C10         C  0.73358804  0.85000219  0.45857709     0.04100
C11         C  0.71783674  0.81218667  0.47368652    -0.12000
C12         C  0.68766663  0.79727337  0.50828836     0.01600
C13         C  0.67304120  0.82035728  0.52737687    -0.10600
C14         C  0.68710306  0.85742827  0.51113340     0.04100
C15         C  0.71740702  0.87210087  0.47693875    -0.10000
H16         H  0.72961615  0.79459638  0.45991705     0.09700
H17         H  0.64920387  0.80871421  0.55294640     0.07200
H18         H  0.72833411  0.90082884  0.46476245     0.07100
C19         C  0.29370088  0.14364814  0.77788444     0.04100
C20         C  0.30834947  0.11947306  0.76296912    -0.12000
C21         C  0.34275448  0.13348606  0.73761992     0.01600
C22         C  0.36276760  0.17187400  0.72716805    -0.10600
C23         C  0.34955185  0.19713765  0.74249596     0.04100
C24         C  0.31468553  0.18250682  0.76774108    -0.10000
H25         H  0.29307618  0.08969758  0.77084127     0.09700
H26         H  0.38897992  0.18174247  0.70687194     0.07200
H27         H  0.30366103  0.20112697  0.77932674     0.07100
C28         C  0.55401938  0.52288129  0.66583410     0.03300
C29         C  0.54119329  0.53977154  0.62929138     0.03200
C30         C  0.50448538  0.51934429  0.60865844    -0.17300
C31         C  0.47980696  0.48261146  0.62428837     0.03300
C32         C  0.49210660  0.46607940  0.66239562     0.03200
C33         C  0.52924414  0.48649810  0.68237390    -0.17300
H34         H  0.53913510  0.47368949  0.71055246     0.05300
H35         H  0.49499768  0.53236284  0.58024916     0.05300
C36         C  0.17380933  0.28691284  0.42179951     0.04100
C37         C  0.14922706  0.29960601  0.44079197    -0.12000
C38         C  0.16160495  0.32887352  0.47886612     0.01600
C39         C  0.19891757  0.34618483  0.49728065    -0.10600
C40         C  0.22439705  0.33501825  0.47746421     0.04100
C41         C  0.21148606  0.30505184  0.43997519    -0.10000
H42         H  0.12038425  0.28663447  0.42641882     0.09700
H43         H  0.20801211  0.36859485  0.52707683     0.07200
H44         H  0.23072252  0.29575894  0.42509590     0.07100
C45         C  0.15502992  0.84292308  0.43838062     0.04100
C46         C  0.13369854  0.80723093  0.45941614    -0.12000
C47         C  0.15064593  0.79230182  0.49232716     0.01600
C48         C  0.18897782  0.81465448  0.50600941    -0.10600
C49         C  0.21068394  0.84987512  0.48452349     0.04100
C50         C  0.19373236  0.86380113  0.45056097    -0.10000
H51         H  0.10424961  0.79059649  0.44839519     0.09700
H52         H  0.20262892  0.80461284  0.53252835     0.07200
H53         H  0.21063110  0.89143051  0.43493886     0.07100
C54         C  0.87455825  0.13554768  0.74984045     0.04100
C55         C  0.89779555  0.17148642  0.73074090    -0.12000
C56         C  0.88352216  0.18716895  0.69509040     0.01600
C57         C  0.84597398  0.16654208  0.67773250    -0.10600
C58         C  0.82204131  0.13114266  0.69746295     0.04100
C59         C  0.83645354  0.11576159  0.73359793    -0.10000
H60         H  0.92681599  0.18764094  0.74423836     0.09700
H61         H  0.83476467  0.17908810  0.65110984     0.07200
H62         H  0.81812309  0.08809525  0.74817884     0.07100
C63         C  0.00604213  0.51523784  0.63302255     0.03300
C64         C  0.03620835  0.53027999  0.59775106     0.03200
C65         C  0.05011847  0.50691086  0.57704398    -0.17300
C66         C  0.03509226  0.46932680  0.59105737     0.03300
C67         C  0.00584735  0.45477396  0.62715588     0.03200
C68         C  0.99184883  0.47776224  0.64782752    -0.17300
H69         H  0.96903722  0.46595768  0.67511614     0.05300
H70         H  0.07304180  0.51811984  0.54987174     0.05300
C71         C  0.53573864  0.98069348  0.59143565     0.03300
C72         C  0.55093017  0.01141025  0.62823234     0.03200
C73         C  0.52771181  0.02498274  0.64983230    -0.17300
C74         C  0.48959316  0.00896643  0.63461619     0.03300
C75         C  0.47447858  0.97808840  0.59773140     0.03200
C76         C  0.49781662  0.96470799  0.57598447    -0.17300
H77         H  0.48591019  0.94045049  0.54886241     0.05300
H78         H  0.53969429  0.04884868  0.67758209     0.05300
O79         O  0.09696047  0.05798354  0.05985410    -0.79900
O80         O  0.97221908  0.97020253  0.21746174    -0.64600
O81         O  0.04028571  0.99291395  0.10410312    -1.11200
C82         C  0.95374698  0.02249578  0.02033511     1.07000
O83         O  0.92460430  0.93686010  0.16274799    -0.77800
O84         O  0.92946514  0.93525427  0.05958940    -0.65400
Ni85       Ni  0.09297076  0.02395457  0.11345363     1.34900
C86         C  0.95377023  0.93362802  0.03041011     0.85700
O87         O  0.03549496  0.96416976  0.20317015    -0.78300
O88         O  0.09281403  0.99194089  0.16687982    -0.88600
C89         C  0.93778415  0.94626808  0.20896052     0.88000
O90         O  0.09274746  0.05934537  0.16370651    -0.66800
O91         O  0.93046460  0.00291085  0.05471496    -0.86100
C92         C  0.06827085  0.05943565  0.19410107     0.86100
C93         C  0.06930684  0.96996492  0.19935591     1.07700
H94         H  0.98707754  0.02508416  0.13276587     0.39500
O95         O  0.98274847  0.00092080  0.11871152    -1.08800
O96         O  0.98739754  0.96034354  0.02766040    -0.65400
Ni97       Ni  0.01463030  0.01040327  0.05998359     1.26300
O98         O  0.03514274  0.03183710  0.19666735    -0.65600
O99         O  0.98726112  0.02754912  0.01755056    -0.77900
C100        C  0.08405807  0.04784581  0.01353717     0.85500
O101        O  0.05031757  0.02210955  0.00511484    -0.65100
Ni102      Ni  0.92979867  0.97119405  0.10909313     1.27400
Ni103      Ni  0.00808358  0.98246180  0.16241558     1.26100
H104        H  0.03671589  0.96884938  0.08996707     0.40100
C105        C  0.92673381  0.10068496  0.83991830     0.16900
C106        C  0.95281847  0.09320546  0.86585417    -0.32100
C107        C  0.94064799  0.07124548  0.91012666     0.21300
C108        C  0.90419913  0.05742478  0.92755534     0.03500
C109        C  0.87815729  0.06457004  0.90140321    -0.21800
C110        C  0.89025746  0.08642132  0.85731349     0.12700
S111        S  0.93591931  0.12764873  0.78654216    -0.05500
C112        C  0.88995884  0.11930471  0.78756191    -0.08900
C113        C  0.86903362  0.09675790  0.82740281    -0.25600
S114        S  0.89466062  0.03176364  0.98196023    -0.02800
C115        C  0.94021929  0.03935735  0.98148282    -0.16200
C116        C  0.96157162  0.06085757  0.94097532    -0.14200
H117        H  0.98132837  0.10421146  0.85238139     0.21200
H118        H  0.84969756  0.05371401  0.91503237     0.17200
H119        H  0.84002474  0.08904231  0.83499265     0.19700
H120        H  0.99061620  0.06824164  0.93430005     0.13100
C121        C  0.72149068  0.08761318  0.63978108     0.16900
C122        C  0.68931739  0.07639417  0.60819743    -0.32100
C123        C  0.65425531  0.05854704  0.63209202     0.21300
C124        C  0.65127488  0.05219256  0.68506872     0.03500
C125        C  0.68344312  0.06294034  0.71648677    -0.21800
C126        C  0.71852294  0.08067162  0.69257594     0.12700
S127        S  0.76663135  0.11123072  0.61879116    -0.05500
C128        C  0.78177327  0.11139540  0.68173956    -0.08900
C129        C  0.75301226  0.09389559  0.71675850    -0.25600
S130        S  0.60615633  0.03075513  0.70674601    -0.02800
C131        C  0.59119333  0.02991707  0.64367575    -0.16200
C132        C  0.61982064  0.04567592  0.60807826    -0.14200
H133        H  0.69153065  0.08167192  0.56692468     0.21200
H134        H  0.68124361  0.05795178  0.75783827     0.17200
H135        H  0.75716493  0.09214388  0.75807086     0.19700
H136        H  0.61553987  0.04734650  0.56678165     0.13100
C137        C  0.96754407  0.35691003  0.68342087     0.16900
C138        C  0.95758810  0.32594370  0.71476711    -0.32100
C139        C  0.93937814  0.28986630  0.69034235     0.21300
C140        C  0.93143692  0.28483128  0.63713960     0.03500
C141        C  0.94195051  0.31578466  0.60570463    -0.21800
C142        C  0.96002593  0.35178174  0.63011236     0.12700
S143        S  0.98902311  0.40294688  0.70559097    -0.05500
C144        C  0.98839374  0.41519972  0.64220199    -0.08900
C145        C  0.97189720  0.38518494  0.60622991    -0.25600
S146        S  0.90634189  0.23886752  0.61558814    -0.02800
C147        C  0.90651333  0.22622938  0.67894863    -0.16200
C148        C  0.92561791  0.25623630  0.71446980    -0.14200
H149        H  0.96319223  0.32975899  0.75643655     0.21200
H150        H  0.93563010  0.31195324  0.56420727     0.17200
H151        H  0.96914873  0.38781289  0.56478534     0.19700
H152        H  0.92732637  0.25359547  0.75612328     0.13100
C153        C  0.11898916  0.92672506  0.27601162     0.16900
C154        C  0.14525443  0.91737479  0.29623653    -0.32100
C155        C  0.13419138  0.89288453  0.33748073     0.21300
C156        C  0.09835374  0.87776735  0.35746354     0.03500
C157        C  0.07174963  0.88686956  0.33677927    -0.21800
C158        C  0.08305265  0.91195410  0.29573515     0.12700
S159        S  0.12804498  0.95707514  0.22729464    -0.05500
C160        C  0.08299280  0.95035719  0.23327835    -0.08900
C161        C  0.06202101  0.92539883  0.27109994    -0.25600
S162        S  0.09118591  0.84905715  0.40841831    -0.02800
C163        C  0.13720972  0.85812378  0.40291894    -0.16200
C164        C  0.15644082  0.88171205  0.36307603    -0.14200
H165        H  0.17337894  0.92920531  0.28100199     0.21200
H166        H  0.04378769  0.87540537  0.35244266     0.17200
H167        H  0.03325000  0.91776748  0.28024116     0.19700
H168        H  0.18529428  0.89033034  0.35310825     0.13100
C169        C  0.31839561  0.90447462  0.49736072     0.16900
C170        C  0.35727707  0.92354765  0.48939320    -0.32100
C171        C  0.38115132  0.93304641  0.53343135     0.21300
C172        C  0.36695050  0.92404305  0.58312998     0.03500
C173        C  0.32816726  0.90473234  0.59101089    -0.21800
C174        C  0.30435482  0.89513609  0.54705892     0.12700
S175        S  0.28457949  0.89050651  0.44929944    -0.05500
C176        C  0.25131809  0.87146558  0.49676202    -0.08900
C177        C  0.26592506  0.87603878  0.54692062    -0.25600
S178        S  0.40032044  0.93863950  0.63164546    -0.02800
C179        C  0.43387090  0.95746034  0.58455947    -0.16200
C180        C  0.41969415  0.95194468  0.53396541    -0.14200
H181        H  0.36841521  0.93074849  0.45066315     0.21200
H182        H  0.31702478  0.89756938  0.62975073     0.17200
H183        H  0.24923187  0.86581578  0.58143850     0.19700
H184        H  0.43670650  0.96197120  0.49969540     0.13100
C185        C  0.08401671  0.68920407  0.52881152     0.16900
C186        C  0.05366768  0.65311595  0.53619257    -0.32100
C187        C  0.06195998  0.62548348  0.55427159     0.21300
C188        C  0.09870273  0.63358504  0.56482502     0.03500
C189        C  0.12884825  0.66939742  0.55710394    -0.21800
C190        C  0.12059478  0.69681378  0.53884802     0.12700
S191        S  0.08057515  0.72670717  0.50622017    -0.05500
C192        C  0.12914373  0.75289867  0.50995286    -0.08900
C193        C  0.14639010  0.73286182  0.52804077    -0.25600
S194        S  0.10328417  0.59689598  0.58720153    -0.02800
C195        C  0.05508120  0.57007059  0.58279219    -0.16200
C196        C  0.03668040  0.58870683  0.56379449    -0.14200
H197        H  0.02498269  0.64683174  0.52806196     0.21200
H198        H  0.15756451  0.67562398  0.56490663     0.17200
H199        H  0.17636337  0.74325556  0.53170297     0.19700
H200        H  0.00653955  0.57612988  0.55773716     0.13100
C201        C  0.15131968  0.20852398  0.31651659     0.16900
C202        C  0.15236083  0.18502720  0.27608188    -0.32100
C203        C  0.11942185  0.15100777  0.26479511     0.21300
C204        C  0.08671756  0.14075610  0.29216278     0.03500
C205        C  0.08558877  0.16446503  0.33240185    -0.21800
C206        C  0.11866516  0.19846792  0.34389758     0.12700
S207        S  0.18871614  0.25032177  0.33732922    -0.05500
C208        C  0.16010378  0.25458932  0.38353883    -0.08900
C209        C  0.12349038  0.22481342  0.38229553    -0.25600
S210        S  0.05017377  0.09757520  0.27323153    -0.02800
C211        C  0.07950051  0.09330808  0.22826986    -0.16200
C212        C  0.11540392  0.12405983  0.22804561    -0.14200
H213        H  0.17788945  0.19266844  0.25481736     0.21200
H214        H  0.06023913  0.15655750  0.35421732     0.17200
H215        H  0.10171184  0.22206650  0.40884180     0.19700
H216        H  0.13772147  0.12632262  0.20288987     0.13100
C217        C  0.07167798  0.40996812  0.51696162     0.16900
C218        C  0.08313082  0.39162188  0.47978148    -0.32100
C219        C  0.10094824  0.37178195  0.49809195     0.21300
C220        C  0.10648125  0.36977128  0.55103755     0.03500
C221        C  0.09395767  0.38704241  0.58812848    -0.21800
C222        C  0.07690950  0.40747741  0.56983083     0.12700
S223        S  0.05232954  0.43804635  0.50295203    -0.05500
C224        C  0.05110574  0.44612786  0.56902341    -0.08900
C225        C  0.06512569  0.42811542  0.59987021    -0.25600
S226        S  0.13240504  0.34829224  0.56552435    -0.02800
C227        C  0.13607309  0.34208339  0.49957551    -0.16200
C228        C  0.11734973  0.35522190  0.46823265    -0.14200
H229        H  0.07966040  0.39395264  0.43844361     0.21200
H230        H  0.09875770  0.38597136  0.62942811     0.17200
H231        H  0.06682156  0.43028663  0.64207252     0.19700
H232        H  0.11796023  0.35498814  0.42604036     0.13100
C233        C  0.32736307  0.37391355  0.52497948     0.16900
C234        C  0.36298662  0.37948310  0.54019139    -0.32100
C235        C  0.38887059  0.41517358  0.56162762     0.21300
C236        C  0.37970733  0.44396252  0.56755919     0.03500
C237        C  0.34429618  0.43847456  0.55202969    -0.21800
C238        C  0.31843719  0.40284118  0.53084826     0.12700
S239        S  0.29162193  0.33268627  0.49887182    -0.05500
C240        C  0.26419387  0.35461214  0.49625905    -0.08900
C241        C  0.28249685  0.39207345  0.51435193    -0.25600
S242        S  0.41441625  0.48484491  0.59549827    -0.02800
C243        C  0.44158710  0.46290674  0.60018223    -0.16200
C244        C  0.42464154  0.42607010  0.57958958    -0.14200
H245        H  0.37009126  0.35694425  0.53595339     0.21200
H246        H  0.33706661  0.46090523  0.55675748     0.17200
H247        H  0.27034985  0.41075234  0.51520182     0.19700
H248        H  0.43759271  0.40809297  0.57849349     0.13100
C249        C  0.19576798  0.08959289  0.84024006     0.16900
C250        C  0.16124125  0.06184929  0.85882151    -0.32100
C251        C  0.14513869  0.07222050  0.90025709     0.21300
C252        C  0.16236918  0.10884276  0.92145292     0.03500
C253        C  0.19617066  0.13687973  0.90159422    -0.21800
C254        C  0.21269631  0.12626847  0.86101878     0.12700
S255        S  0.22204925  0.08153287  0.79488857    -0.05500
C256        C  0.25667234  0.12806281  0.80411678    -0.08900
C257        C  0.24732952  0.14854297  0.84011511    -0.25600
S258        S  0.14147654  0.11463533  0.97602078    -0.02800
C259        C  0.10910910  0.06725436  0.97039608    -0.16200
C260        C  0.11404877  0.04832429  0.92764329    -0.14200
H261        H  0.14849690  0.03296822  0.84348533     0.21200
H262        H  0.21005139  0.16523335  0.91896650     0.17200
H263        H  0.26563778  0.17768849  0.85248525     0.19700
H264        H  0.09777303  0.01815251  0.91965873     0.13100
C265        C  0.42166032  0.29997040  0.71019888     0.16900
C266        C  0.45345729  0.33249902  0.69472418    -0.32100
C267        C  0.45147593  0.36605875  0.69419300     0.21300
C268        C  0.41934442  0.36747759  0.70896102     0.03500
C269        C  0.38733623  0.33470862  0.72476925    -0.21800
C270        C  0.38924059  0.30079392  0.72476041     0.12700
S271        S  0.41884188  0.25675134  0.71190500    -0.05500
C272        C  0.37295246  0.23835789  0.73223975    -0.08900
C273        C  0.36111706  0.26554442  0.73750884    -0.25600
S274        S  0.42292160  0.41128260  0.70416004    -0.02800
C275        C  0.46779355  0.42725549  0.68057602    -0.16200
C276        C  0.47926247  0.40009003  0.67839459    -0.14200
H277        H  0.47859443  0.33156122  0.68287019     0.21200
H278        H  0.36200465  0.33550941  0.73587698     0.17200
H279        H  0.33343646  0.26010003  0.74924542     0.19700
H280        H  0.50625384  0.40476704  0.66433166     0.13100
C281        C  0.38644399  0.07792379  0.67076859     0.16900
C282        C  0.40219975  0.06302535  0.63469411    -0.32100
C283        C  0.42596683  0.04982262  0.65391348     0.21300
C284        C  0.43346219  0.05092589  0.70685215     0.03500
C285        C  0.41718964  0.06532995  0.74316389    -0.21800
C286        C  0.39364636  0.07895593  0.72383798     0.12700
S287        S  0.35968710  0.09835149  0.65449828    -0.05500
C288        C  0.35788006  0.10837689  0.71979002    -0.08900
C289        C  0.37702409  0.09623020  0.75231656    -0.25600
S290        S  0.46416710  0.03457764  0.72171640    -0.02800
C291        C  0.46659118  0.02581995  0.65590400    -0.16200
C292        C  0.44487275  0.03560814  0.62461996    -0.14200
H293        H  0.39690592  0.06261899  0.59323078     0.21200
H294        H  0.42328712  0.06664695  0.78452014     0.17200
H295        H  0.38018295  0.10148951  0.79415795     0.19700
H296        H  0.44319101  0.03266294  0.58246354     0.13100
C297        C  0.85844514  0.88701237  0.30115634     0.16900
C298        C  0.82574073  0.85871864  0.32321606    -0.32100
C299        C  0.80895050  0.86963822  0.36315431     0.21300
C300        C  0.82410307  0.90706322  0.38027245     0.03500
C301        C  0.85712880  0.93526266  0.35881150    -0.21800
C302        C  0.87399954  0.92436492  0.31900199     0.12700
S303        S  0.88089851  0.88011188  0.24913545    -0.05500
C304        C  0.91203840  0.92792257  0.25194108    -0.08900
C305        C  0.90510547  0.94792852  0.29135340    -0.25600
S306        S  0.79875114  0.91480202  0.42742383    -0.02800
C307        C  0.76721510  0.86695754  0.42474773    -0.16200
C308        C  0.77650932  0.84647853  0.38862429    -0.14200
H309        H  0.81344406  0.82959213  0.30904403     0.21200
H310        H  0.86876473  0.96455313  0.37190488     0.17200
H311        H  0.92038781  0.97835930  0.29712887     0.19700
H312        H  0.76008358  0.81635419  0.38050358     0.13100
C313        C  0.59771948  0.94220612  0.52996365     0.16900
C314        C  0.62022811  0.93273238  0.49795539    -0.32100
C315        C  0.63747259  0.91347796  0.52041868     0.21300
C316        C  0.63254098  0.90418704  0.57238603     0.03500
C317        C  0.61067796  0.91423333  0.60450014    -0.21800
C318        C  0.59339965  0.93329270  0.58208406     0.12700
S319        S  0.57357090  0.96482479  0.51037185    -0.05500
C320        C  0.55815556  0.96266095  0.57330908    -0.08900
C321        C  0.57085772  0.94501762  0.60708059    -0.25600
S322        S  0.65321101  0.87834894  0.59147363    -0.02800
C323        C  0.66876803  0.87980003  0.52871589    -0.16200
C324        C  0.65878641  0.90004148  0.49530906    -0.14200
H325        H  0.62365855  0.93951769  0.45719306     0.21200
H326        H  0.60671833  0.90687315  0.64504418     0.17200
H327        H  0.56423280  0.94141551  0.64804011     0.19700
H328        H  0.66503333  0.90297229  0.45420252     0.13100
C329        C  0.63660949  0.68966107  0.52675432     0.16900
C330        C  0.61667900  0.65010457  0.52010980    -0.32100
C331        C  0.59882878  0.62909432  0.56376898     0.21300
C332        C  0.60139440  0.64668623  0.61208728     0.03500
C333        C  0.62107537  0.68614446  0.61861042    -0.21800
C334        C  0.63826972  0.70712909  0.57481530     0.12700
S335        S  0.65914954  0.72042222  0.47846784    -0.05500
C336        C  0.67002736  0.75723728  0.52318307    -0.08900
C337        C  0.65722936  0.74576100  0.57298683    -0.25600
S338        S  0.57843969  0.61643555  0.66046969    -0.02800
C339        C  0.56463284  0.57960615  0.61509783    -0.16200
C340        C  0.57733367  0.59047948  0.56512720    -0.14200
H341        H  0.61476549  0.63634823  0.48244178     0.21200
H342        H  0.62254441  0.69992502  0.65611442     0.17200
H343        H  0.66099994  0.76474646  0.60598445     0.19700
H344        H  0.57151462  0.57111860  0.53189631     0.13100
C345        C  0.90649657  0.83770674  0.95707573     0.16900
C346        C  0.88108454  0.80143905  0.93788213    -0.32100
C347        C  0.89286633  0.78595496  0.89739337     0.21300
C348        C  0.92847531  0.80551150  0.87688490     0.03500
C349        C  0.95402164  0.84204789  0.89607210    -0.21800
C350        C  0.94213748  0.85768471  0.93668736     0.12700
S351        S  0.89685672  0.86107473  0.00559157    -0.05500
C352        C  0.94124896  0.89859867  0.99856792    -0.08900
C353        C  0.96242859  0.89287493  0.96056401    -0.25600
S354        S  0.93708254  0.78114830  0.82801302    -0.02800
C355        C  0.89203395  0.74449291  0.83520337    -0.16200
C356        C  0.87188395  0.75113701  0.87369417    -0.14200
H357        H  0.85322406  0.78598298  0.95373750     0.21200
H358        H  0.98180409  0.85756605  0.88004259     0.17200
H359        H  0.99076018  0.91339314  0.95057192     0.19700
H360        H  0.84341451  0.73137433  0.88422112     0.13100
C361        C  0.72391117  0.61064226  0.69193985     0.16900
C362        C  0.69283591  0.59473269  0.65756712    -0.32100
C363        C  0.65710856  0.57533990  0.67903217     0.21300
C364        C  0.65228123  0.57174161  0.73237965     0.03500
C365        C  0.68344367  0.58794748  0.76695456    -0.21800
C366        C  0.71930464  0.60760059  0.74543295     0.12700
S367        S  0.76956286  0.63407430  0.67312758    -0.05500
C368        C  0.78268035  0.64033883  0.73799968    -0.08900
C369        C  0.75311814  0.62503329  0.77222789    -0.25600
S370        S  0.60629407  0.54677252  0.75011972    -0.02800
C371        C  0.59363187  0.54199520  0.68496858    -0.16200
C372        C  0.62370245  0.55814255  0.65173251    -0.14200
H373        H  0.69635567  0.59721904  0.61581871     0.21200
H374        H  0.67991855  0.58530001  0.80867794     0.17200
H375        H  0.75632585  0.62577750  0.81422717     0.19700
H376        H  0.62121600  0.55744154  0.60964434     0.13100
C377        C  0.95340756  0.62369509  0.71993783     0.16900
C378        C  0.98477031  0.61886061  0.70876694    -0.32100
C379        C  0.97783005  0.58329394  0.68842224     0.21300
C380        C  0.94141405  0.55415206  0.67988590     0.03500
C381        C  0.91038333  0.55871907  0.69220446    -0.21800
C382        C  0.91726022  0.59404950  0.71210935     0.12700
S383        S  0.95493095  0.66473881  0.74234468    -0.05500
C384        C  0.90621091  0.64152142  0.74062675    -0.08900
C385        C  0.89035895  0.60377890  0.72448730    -0.25600
S386        S  0.93817724  0.51382648  0.65288763    -0.02800
C387        C  0.98657309  0.53589154  0.65298671    -0.16200
C388        C  0.00409452  0.57273836  0.67383393    -0.14200
H389        H  0.01315871  0.64186353  0.71475419     0.21200
H390        H  0.88198042  0.53585692  0.68554617     0.17200
H391        H  0.86058133  0.58395870  0.72180149     0.19700
H392        H  0.03422290  0.59079746  0.67781497     0.13100
loop_ 
_geom_bond_atom_site_label_1 
_geom_bond_atom_site_label_2 
_geom_bond_distance 
_geom_bond_site_symmetry_2 
_ccdc_geom_bond_type 
C1            C2   1.406       .  A
C1            C6   1.406       .  A
C1          C355   1.477       .  S
C2            C3   1.396       .  A
C2            H7   1.083       .  S
C3            C4   1.397       .  A
C3          C368   1.470       .  S
C4            C5   1.409       .  A
C4            H8   1.081       .  S
C5            C6   1.407       .  A
C5          C384   1.488       .  S
C6            H9   1.082       .  S
C10          C11   1.413       .  A
C10          C15   1.411       .  A
C10         C307   1.494       .  S
C11          C12   1.408       .  A
C11          H16   1.082       .  S
C12          C13   1.403       .  A
C12         C336   1.485       .  S
C13          C14   1.402       .  A
C13          H17   1.083       .  S
C14          C15   1.405       .  A
C14         C323   1.483       .  S
C15          H18   1.083       .  S
C19          C20   1.412       .  A
C19          C24   1.415       .  A
C19         C256   1.493       .  S
C20          C21   1.401       .  A
C20          H25   1.083       .  S
C21          C22   1.398       .  A
C21         C288   1.480       .  S
C22          C23   1.410       .  A
C22          H26   1.082       .  S
C23          C24   1.413       .  A
C23         C272   1.502       .  S
C24          H27   1.080       .  S
C28          C29   1.414       .  A
C28          C33   1.405       .  A
C28         C371   1.481       .  S
C29          C30   1.400       .  A
C29         C339   1.482       .  S
C30          C31   1.407       .  A
C30          H35   1.084       .  S
C31          C32   1.419       .  A
C31         C243   1.481       .  S
C32          C33   1.408       .  A
C32         C275   1.488       .  S
C33          H34   1.084       .  S
C36          C37   1.406       .  A
C36          C41   1.409       .  A
C36         C208   1.481       .  S
C37          C38   1.398       .  A
C37          H42   1.083       .  S
C38          C39   1.399       .  A
C38         C227   1.470       .  S
C39          C40   1.404       .  A
C39          H43   1.083       .  S
C40          C41   1.406       .  A
C40         C240   1.485       .  S
C41          H44   1.082       .  S
C45          C46   1.405       .  A
C45          C50   1.406       .  A
C45         C163   1.480       .  S
C46          C47   1.407       .  A
C46          H51   1.082       .  S
C47          C48   1.407       .  A
C47         C192   1.489       .  S
C48          C49   1.398       .  A
C48          H52   1.080       .  S
C49          C50   1.397       .  A
C49         C176   1.473       .  S
C50          H53   1.083       .  S
C54          C55   1.404       .  A
C54          C59   1.409       .  A
C54         C112   1.481       .  S
C55          C56   1.401       .  A
C55          H60   1.084       .  S
C56          C57   1.400       .  A
C56         C147   1.471       .  S
C57          C58   1.400       .  A
C57          H61   1.084       .  S
C58          C59   1.405       .  A
C58         C128   1.479       .  S
C59          H62   1.083       .  S
C63          C64   1.419       .  A
C63          C68   1.404   1_455  A
C63         C387   1.481   1_455  S
C64          C65   1.406       .  A
C64         C195   1.476       .  S
C65          C66   1.399       .  A
C65          H70   1.084       .  S
C66          C67   1.408       .  A
C66         C224   1.475       .  S
C67          C68   1.395   1_455  A
C67         C144   1.471   1_455  S
C68          H69   1.084       .  S
C71          C72   1.413   1_565  A
C71          C76   1.401       .  A
C71         C320   1.482       .  S
C72          C73   1.406       .  A
C72         C131   1.478       .  S
C73          C74   1.406       .  A
C73          H78   1.084       .  S
C74          C75   1.418   1_545  A
C74         C291   1.492       .  S
C75          C76   1.407       .  A
C75         C179   1.476       .  S
C76          H77   1.084       .  S
O79         Ni85   1.930       .  S
O79         C100   1.270       .  A
O80        Ni103   1.930   1_655  S
O80          C89   1.272       .  A
O81         Ni85   1.896   1_565  S
O81        Ni103   1.910       .  S
O81         Ni97   1.903   1_565  S
O81         H104   0.970       .  S
C82         C115   1.470   1_554  S
C82          O99   1.277       .  A
C82          O91   1.276       .  A
O83        Ni102   1.927       .  S
O83          C89   1.268       .  A
O84        Ni102   1.894       .  S
O84          C86   1.266       .  A
Ni85         O88   1.915   1_545  S
Ni85         O90   1.898       .  S
C86         C352   1.470   1_554  S
C86          O96   1.272       .  A
O87        Ni103   1.927       .  S
O87          C93   1.280       .  A
O88          C93   1.278       .  A
C89         C304   1.474       .  S
O90          C92   1.266       .  A
O91        Ni102   1.918   1_545  S
C92         C211   1.473       .  S
C92          O98   1.271       .  A
C93         C160   1.470       .  S
H94          O95   0.963       .  S
O95        Ni103   1.913   1_645  S
O95         Ni97   1.915   1_655  S
O95        Ni102   1.900   1_545  S
O96         Ni97   1.932   1_665  S
Ni97        O101   1.924       .  S
Ni97         O99   1.919   1_455  S
O98        Ni103   1.931   1_545  S
C100        C259   1.474   1_554  S
C100        O101   1.270       .  A
C105        C110   1.386       .  A
C105        C106   1.404       .  A
C105        S111   1.707       .  A
C106        C107   1.404       .  A
C106        H117   1.083       .  S
C107        C116   1.373       .  A
C107        C108   1.387       .  A
C108        C109   1.397       .  A
C108        S114   1.700       .  A
C109        C110   1.398       .  A
C109        H118   1.083       .  S
C110        C113   1.367       .  A
S111        C112   1.728       .  A
C112        C113   1.386       .  A
C113        H119   1.083       .  S
S114        C115   1.722       .  A
C115        C116   1.388       .  A
C116        H120   1.083       .  S
C121        C126   1.387       .  A
C121        C122   1.402       .  A
C121        S127   1.707       .  A
C122        C123   1.402       .  A
C122        H133   1.083       .  S
C123        C132   1.369       .  A
C123        C124   1.387       .  A
C124        C125   1.402       .  A
C124        S130   1.709       .  A
C125        C126   1.403       .  A
C125        H134   1.083       .  S
C126        C129   1.371       .  A
S127        C128   1.725       .  A
C128        C129   1.387       .  A
C129        H135   1.083       .  S
S130        C131   1.720       .  A
C131        C132   1.387       .  A
C132        H136   1.083       .  S
C137        C142   1.388       .  A
C137        C138   1.400       .  A
C137        S143   1.706       .  A
C138        C139   1.402       .  A
C138        H149   1.083       .  S
C139        C148   1.368       .  A
C139        C140   1.387       .  A
C140        C141   1.398       .  A
C140        S146   1.703       .  A
C141        C142   1.399       .  A
C141        H150   1.083       .  S
C142        C145   1.365       .  A
S143        C144   1.720       .  A
C144        C145   1.383       .  A
C145        H151   1.083       .  S
S146        C147   1.722       .  A
C147        C148   1.386       .  A
C148        H152   1.083       .  S
C153        C158   1.387       .  A
C153        C154   1.395       .  A
C153        S159   1.696       .  A
C154        C155   1.395       .  A
C154        H165   1.083       .  S
C155        C164   1.364       .  A
C155        C156   1.386       .  A
C156        C157   1.405       .  A
C156        S162   1.709       .  A
C157        C158   1.405       .  A
C157        H166   1.083       .  S
C158        C161   1.375       .  A
S159        C160   1.722       .  A
C160        C161   1.389       .  A
C161        H167   1.083       .  S
S162        C163   1.728       .  A
C163        C164   1.385       .  A
C164        H168   1.083       .  S
C169        C174   1.387       .  A
C169        C170   1.402       .  A
C169        S175   1.708       .  A
C170        C171   1.403       .  A
C170        H181   1.083       .  S
C171        C180   1.370       .  A
C171        C172   1.388       .  A
C172        C173   1.398       .  A
C172        S178   1.703       .  A
C173        C174   1.399       .  A
C173        H182   1.083       .  S
C174        C177   1.366       .  A
S175        C176   1.723       .  A
C176        C177   1.384       .  A
C177        H183   1.083       .  S
S178        C179   1.722       .  A
C179        C180   1.385       .  A
C180        H184   1.083       .  S
C185        C190   1.384       .  A
C185        C186   1.404       .  A
C185        S191   1.708       .  A
C186        C187   1.405       .  A
C186        H197   1.083       .  S
C187        C196   1.371       .  A
C187        C188   1.387       .  A
C188        C189   1.395       .  A
C188        S194   1.699       .  A
C189        C190   1.397       .  A
C189        H198   1.083       .  S
C190        C193   1.362       .  A
S191        C192   1.731       .  A
C192        C193   1.390       .  A
C193        H199   1.081       .  S
S194        C195   1.721       .  A
C195        C196   1.388       .  A
C196        H200   1.083       .  S
C201        C206   1.386       .  A
C201        C202   1.398       .  A
C201        S207   1.705       .  A
C202        C203   1.401       .  A
C202        H213   1.083       .  S
C203        C212   1.365       .  A
C203        C204   1.386       .  A
C204        C205   1.402       .  A
C204        S210   1.711       .  A
C205        C206   1.404       .  A
C205        H214   1.083       .  S
C206        C209   1.368       .  A
S207        C208   1.724       .  A
C208        C209   1.390       .  A
C209        H215   1.083       .  S
S210        C211   1.724       .  A
C211        C212   1.387       .  A
C212        H216   1.083       .  S
C217        C222   1.387       .  A
C217        C218   1.402       .  A
C217        S223   1.709       .  A
C218        C219   1.403       .  A
C218        H229   1.083       .  S
C219        C228   1.370       .  A
C219        C220   1.388       .  A
C220        C221   1.398       .  A
C220        S226   1.702       .  A
C221        C222   1.399       .  A
C221        H230   1.083       .  S
C222        C225   1.365       .  A
S223        C224   1.722       .  A
C224        C225   1.384       .  A
C225        H231   1.083       .  S
S226        C227   1.720       .  A
C227        C228   1.385       .  A
C228        H232   1.083       .  S
C233        C238   1.385       .  A
C233        C234   1.403       .  A
C233        S239   1.709       .  A
C234        C235   1.404       .  A
C234        H245   1.083       .  S
C235        C244   1.371       .  A
C235        C236   1.387       .  A
C236        C237   1.398       .  A
C236        S242   1.703       .  A
C237        C238   1.400       .  A
C237        H246   1.083       .  S
C238        C241   1.366       .  A
S239        C240   1.727       .  A
C240        C241   1.389       .  A
C241        H247   1.082       .  S
S242        C243   1.722       .  A
C243        C244   1.389       .  A
C244        H248   1.083       .  S
C249        C254   1.385       .  A
C249        C250   1.405       .  A
C249        S255   1.708       .  A
C250        C251   1.405       .  A
C250        H261   1.083       .  S
C251        C260   1.377       .  A
C251        C252   1.387       .  A
C252        C253   1.404       .  A
C252        S258   1.707       .  A
C253        C254   1.404       .  A
C253        H262   1.083       .  S
C254        C257   1.375       .  A
S255        C256   1.729       .  A
C256        C257   1.392       .  A
C257        H263   1.082       .  S
S258        C259   1.724       .  A
C259        C260   1.387       .  A
C260        H264   1.083       .  S
C265        C270   1.384       .  A
C265        C266   1.398       .  A
C265        S271   1.698       .  A
C266        C267   1.398       .  A
C266        H277   1.083       .  S
C267        C276   1.369       .  A
C267        C268   1.386       .  A
C268        C269   1.410       .  A
C268        S274   1.715       .  A
C269        C270   1.410       .  A
C269        H278   1.083       .  S
C270        C273   1.381       .  A
S271        C272   1.729       .  A
C272        C273   1.399       .  A
C273        H279   1.081       .  S
S274        C275   1.732       .  A
C275        C276   1.384       .  A
C276        H280   1.083       .  S
C281        C286   1.387       .  A
C281        C282   1.403       .  A
C281        S287   1.709       .  A
C282        C283   1.403       .  A
C282        H293   1.083       .  S
C283        C292   1.373       .  A
C283        C284   1.386       .  A
C284        C285   1.408       .  A
C284        S290   1.715       .  A
C285        C286   1.409       .  A
C285        H294   1.083       .  S
C286        C289   1.379       .  A
S287        C288   1.721       .  A
C288        C289   1.390       .  A
C289        H295   1.083       .  S
S290        C291   1.727       .  A
C291        C292   1.389       .  A
C292        H296   1.083       .  S
C297        C302   1.387       .  A
C297        C298   1.406       .  A
C297        S303   1.709       .  A
C298        C299   1.405       .  A
C298        H309   1.083       .  S
C299        C308   1.377       .  A
C299        C300   1.385       .  A
C300        C301   1.405       .  A
C300        S306   1.707       .  A
C301        C302   1.405       .  A
C301        H310   1.083       .  S
C302        C305   1.377       .  A
S303        C304   1.725       .  A
C304        C305   1.387       .  A
C305        H311   1.083       .  S
S306        C307   1.729       .  A
C307        C308   1.393       .  A
C308        H312   1.082       .  S
C313        C318   1.387       .  A
C313        C314   1.406       .  A
C313        S319   1.715       .  A
C314        C315   1.407       .  A
C314        H325   1.083       .  S
C315        C324   1.376       .  A
C315        C316   1.387       .  A
C316        C317   1.401       .  A
C316        S322   1.706       .  A
C317        C318   1.401       .  A
C317        H326   1.083       .  S
C318        C321   1.369       .  A
S319        C320   1.724       .  A
C320        C321   1.385       .  A
C321        H327   1.083       .  S
S322        C323   1.725       .  A
C323        C324   1.390       .  A
C324        H328   1.083       .  S
C329        C334   1.386       .  A
C329        C330   1.406       .  A
C329        S335   1.713       .  A
C330        C331   1.406       .  A
C330        H341   1.083       .  S
C331        C340   1.375       .  A
C331        C332   1.387       .  A
C332        C333   1.402       .  A
C332        S338   1.708       .  A
C333        C334   1.403       .  A
C333        H342   1.083       .  S
C334        C337   1.372       .  A
S335        C336   1.726       .  A
C336        C337   1.389       .  A
C337        H343   1.083       .  S
S338        C339   1.722       .  A
C339        C340   1.388       .  A
C340        H344   1.083       .  S
C345        C350   1.388       .  A
C345        C346   1.396       .  A
C345        S351   1.697   1_556  A
C346        C347   1.396       .  A
C346        H357   1.083       .  S
C347        C356   1.364       .  A
C347        C348   1.386       .  A
C348        C349   1.404       .  A
C348        S354   1.708       .  A
C349        C350   1.405       .  A
C349        H358   1.083       .  S
C350        C353   1.374       .  A
S351        C352   1.722   1_554  A
C352        C353   1.388       .  A
C353        H359   1.083       .  S
S354        C355   1.727       .  A
C355        C356   1.384       .  A
C356        H360   1.083       .  S
C361        C366   1.388       .  A
C361        C362   1.398       .  A
C361        S367   1.705       .  A
C362        C363   1.400       .  A
C362        H373   1.083       .  S
C363        C372   1.365       .  A
C363        C364   1.386       .  A
C364        C365   1.404       .  A
C364        S370   1.712       .  A
C365        C366   1.405       .  A
C365        H374   1.083       .  S
C366        C369   1.372       .  A
S367        C368   1.719       .  A
C368        C369   1.386       .  A
C369        H375   1.083       .  S
S370        C371   1.725       .  A
C371        C372   1.385       .  A
C372        H376   1.083       .  S
C377        C382   1.384       .  A
C377        C378   1.407       .  A
C377        S383   1.711       .  A
C378        C379   1.407       .  A
C378        H389   1.083   1_655  S
C379        C388   1.374   1_655  A
C379        C380   1.387       .  A
C380        C381   1.394       .  A
C380        S386   1.696       .  A
C381        C382   1.395       .  A
C381        H390   1.083       .  S
C382        C385   1.362       .  A
S383        C384   1.732       .  A
C384        C385   1.387       .  A
C385        H391   1.081       .  S
S386        C387   1.721       .  A
C387        C388   1.391   1_655  A
C388        H392   1.083       .  S
