geometry optimzed in LAMMPS
_audit_creation_date              2020-11-30 
_audit_creation_method            'lammps2cif' 
_symmetry_space_group_name_H-M    'P1' 
_symmetry_Int_Tables_number       1 
_symmetry_cell_setting            triclinic 
loop_ 
_symmetry_equiv_pos_as_xyz 
  x,y,z 
_cell_length_a                    37.34657879826501 
_cell_length_b                    37.32082853501299 
_cell_length_c                    33.042651106837795 
_cell_angle_alpha                 89.93547099067337 
_cell_angle_beta                  90.02687377396254 
_cell_angle_gamma                 121.13930463328894 
loop_ 
_atom_site_label 
_atom_site_type_symbol 
_atom_site_fract_x 
_atom_site_fract_y 
_atom_site_fract_z 
_atom_site_charge 
O1          O  0.05503393  0.53037351  0.54475253    -0.73190
O2          O  0.98786140  0.44692889  0.45856470    -0.74170
O3          O  0.05564585  0.53064579  0.45931417    -0.62790
O4          O  0.98701901  0.44637198  0.54434036    -0.71200
O5          O  0.94195844  0.46836822  0.54483217    -0.70750
O6          O  0.00920825  0.55086141  0.45777239    -0.62010
O7          O  0.94096077  0.46656524  0.45922884    -0.74520
O8          O  0.01023950  0.55275047  0.54317356    -0.73300
Cu9        Cu  0.02284572  0.48767521  0.50182900     1.04560
Cu10       Cu  0.97397536  0.51039912  0.50130736     1.04330
C11         C  0.04362146  0.55546301  0.55667568     0.93010
C12         C  0.95412028  0.44355573  0.44523079     0.92150
C13         C  0.04332027  0.55438861  0.44540555     0.84290
C14         C  0.95370570  0.44382132  0.55778232     0.90560
O15         O  0.47258631  0.52668794  0.96098964    -0.73190
O16         O  0.46609792  0.44753607  0.04750584    -0.74170
O17         O  0.47719769  0.52899574  0.04688898    -0.62790
O18         O  0.46160729  0.44500421  0.96221454    -0.71200
O19         O  0.53036490  0.47428130  0.95608224    -0.70750
O20         O  0.54541399  0.55366208  0.04524604    -0.62010
O21         O  0.53425546  0.47236230  0.04137517    -0.74520
O22         O  0.54163111  0.55583738  0.96019990    -0.73300
Cu23       Cu  0.46691848  0.48605131  0.00444404     1.04560
Cu24       Cu  0.54030517  0.51505684  0.00055061     1.04330
C25         C  0.50859224  0.55466331  0.94793791     0.93010
C26         C  0.49885897  0.44688522  0.05731200     0.92150
C27         C  0.51412722  0.55445037  0.05982936     0.84290
C28         C  0.49326505  0.44609238  0.94606840     0.90560
O29         O  0.94515988  0.47416139  0.95388343    -0.73190
O30         O  0.00942411  0.45720298  0.04189885    -0.74170
O31         O  0.94228157  0.47223680  0.03971371    -0.62790
O32         O  0.01192790  0.45850855  0.95579135    -0.71200
O33         O  0.05981478  0.52622462  0.95820537    -0.70750
O34         O  0.98798575  0.54071875  0.03929121    -0.62010
O35         O  0.05541580  0.52540802  0.04388394    -0.74520
O36         O  0.99304580  0.54185286  0.95422654    -0.73300
Cu37       Cu  0.97570631  0.46310949  0.99785087     1.04560
Cu38       Cu  0.02568434  0.53591559  0.99906590     1.04330
C39         C  0.95925196  0.51109114  0.94002715     0.93010
C40         C  0.04236250  0.48842283  0.05688581     0.92150
C41         C  0.95364092  0.50912891  0.05160954     0.84290
C42         C  0.04658947  0.48978151  0.94365850     0.90560
N43         N  0.73785174  0.16764936  0.21238946    -0.27540
N44         N  0.74512035  0.13841125  0.19951654    -0.35400
C45         C  0.71748046  0.11561083  0.17067156     0.00800
C46         C  0.69149625  0.13105882  0.16458850     0.06830
C47         C  0.70471733  0.16374197  0.19187344    -0.06270
H48         H  0.71698815  0.09013727  0.15455028     0.07500
H49         H  0.69224377  0.18404223  0.19545839     0.08700
Cu50       Cu  0.79334286  0.13045399  0.21721675     0.44170
Cu51       Cu  0.77627614  0.21353594  0.25439742     0.41990
Cu52       Cu  0.87319615  0.21267625  0.27123198     0.43880
N53         N  0.84658080  0.13051315  0.23304471    -0.34920
N54         N  0.87727817  0.16216903  0.25276542    -0.29180
C55         C  0.90755579  0.15377878  0.26013515    -0.05280
C56         C  0.89502429  0.11452696  0.24448153     0.06940
C57         C  0.85627737  0.10090334  0.22717404     0.00730
H58         H  0.93626351  0.17468586  0.27601342     0.08390
H59         H  0.83601336  0.07113819  0.21258290     0.07460
N60         N  0.86090809  0.25627820  0.29501772    -0.36370
N61         N  0.82578761  0.25652333  0.29087171    -0.28550
C62         C  0.82902817  0.28867868  0.31266677    -0.03790
C63         C  0.86816705  0.30951174  0.33092086     0.04820
C64         C  0.88726977  0.28803538  0.31891799     0.02910
H65         H  0.80505268  0.29666065  0.31450699     0.08020
H66         H  0.91803356  0.29456583  0.32754788     0.06850
N67         N  0.25968137  0.82666581  0.21079698    -0.27540
N68         N  0.25339152  0.85667634  0.19827600    -0.35400
C69         C  0.28514105  0.88321638  0.17446860     0.00800
C70         C  0.31309732  0.86971609  0.17183387     0.06830
C71         C  0.29583647  0.83335169  0.19466495    -0.06270
H72         H  0.28781178  0.91065102  0.16029729     0.07500
H73         H  0.30898395  0.81384558  0.19990480     0.08700
Cu74       Cu  0.20424856  0.86397181  0.21408486     0.44170
Cu75       Cu  0.21960010  0.77974498  0.25088837     0.41990
Cu76       Cu  0.13662328  0.79648786  0.28808435     0.43880
N77         N  0.15724975  0.87085617  0.23780718    -0.34920
N78         N  0.13255506  0.84612622  0.26679727    -0.29180
C79         C  0.10557355  0.85811483  0.27730002    -0.05280
C80         C  0.11392977  0.89215873  0.25365560     0.06940
C81         C  0.14660143  0.89922719  0.22865392     0.00730
H82         H  0.08105446  0.84250415  0.29963045     0.08390
H83         H  0.16159976  0.92324188  0.20572664     0.07460
N84         N  0.14241847  0.74612520  0.30303956    -0.36370
N85         N  0.17239078  0.73972413  0.29074469    -0.28550
C86         C  0.16572963  0.70367006  0.30720407    -0.03790
C87         C  0.12944282  0.68658717  0.33001848     0.04820
C88         C  0.11580656  0.71441248  0.32692528     0.02910
H89         H  0.18540305  0.69064400  0.30247384     0.08020
H90         H  0.08855732  0.71192850  0.34124472     0.06850
C91         C  0.97622664  0.01808733  0.25708906     0.02040
C92         C  0.95318132  0.97317360  0.26346790     0.02040
C93         C  0.97638286  0.95242446  0.25720808     0.02040
C94         C  0.02049768  0.97596897  0.25182919     0.02040
C95         C  0.04222415  0.01976852  0.24995042     0.02040
C96         C  0.02033787  0.04077813  0.25243435     0.02040
N97         N  0.56322801  0.74639794  0.20277163    -0.27540
N98         N  0.60100055  0.75663622  0.19006232    -0.35400
C99         C  0.59799655  0.72602840  0.16654245     0.00800
C100        C  0.55651720  0.69472050  0.16380508     0.06830
C101        C  0.53511273  0.70866860  0.18704650    -0.06270
H102        H  0.62443776  0.72648760  0.15259195     0.07500
H103        H  0.50186006  0.69217092  0.19306832     0.08700
Cu104      Cu  0.65740419  0.80946363  0.20489460     0.44170
Cu105      Cu  0.55227513  0.78359188  0.24238911     0.41990
Cu106      Cu  0.65157113  0.87980844  0.26595769     0.43880
N107        N  0.71091511  0.86023280  0.22821234    -0.34920
N108        N  0.70838965  0.88681627  0.25230237    -0.29180
C109        C  0.74621513  0.91338830  0.26807216    -0.05280
C110        C  0.77464814  0.90327468  0.25289625     0.06940
C111        C  0.75069733  0.86936099  0.22737573     0.00730
H112        H  0.75102405  0.93614199  0.29072139     0.08390
H113        H  0.76095454  0.85129042  0.21080456     0.07460
N114        N  0.59406074  0.86576476  0.28682523    -0.36370
N115        N  0.55774903  0.83089496  0.28072224    -0.28550
C116        C  0.52869941  0.83181530  0.30444617    -0.03790
C117        C  0.54822708  0.86909797  0.32625939     0.04820
C118        C  0.58934763  0.88954870  0.31383552     0.02910
H119        H  0.49664618  0.80632892  0.30720642     0.08020
H120        H  0.61480414  0.91900551  0.32512154     0.06850
N121        N  0.26011411  0.43828060  0.29193485    -0.27540
N122        N  0.25184763  0.40107671  0.30453293    -0.35400
C123        C  0.28256198  0.40576653  0.32899752     0.00800
C124        C  0.31221505  0.44778022  0.33175681     0.06830
C125        C  0.29679192  0.46779863  0.30844256    -0.06270
H126        H  0.28327412  0.38014278  0.34348669     0.07500
H127        H  0.31169599  0.50107690  0.30290683     0.08700
Cu128      Cu  0.20236712  0.34378474  0.28653920     0.44170
Cu129      Cu  0.22171825  0.44565101  0.25081372     0.41990
Cu130      Cu  0.14164445  0.34346104  0.20739271     0.43880
N131        N  0.15653102  0.28859733  0.26074305    -0.34920
N132        N  0.13376183  0.28832847  0.23016088    -0.29180
C133        C  0.10649041  0.24847682  0.21939446    -0.05280
C134        C  0.11266810  0.22226831  0.24446597     0.06940
C135        C  0.14463852  0.24900638  0.27040266     0.00730
H136        H  0.08316137  0.23944725  0.19594933     0.08390
H137        H  0.15833876  0.24037836  0.29452555     0.07460
N138        N  0.14955258  0.40076324  0.19213592    -0.36370
N139        N  0.17706680  0.43765516  0.20768076    -0.28550
C140        C  0.17011909  0.46683689  0.19161253    -0.03790
C141        C  0.13700301  0.44710864  0.16452581     0.04820
C142        C  0.12485087  0.40541775  0.16601711     0.02910
H143        H  0.18712361  0.49962587  0.19979238     0.08020
H144        H  0.09908327  0.37991929  0.14983736     0.06850
N145        N  0.44013240  0.25769953  0.20555090    -0.27540
N146        N  0.40460214  0.24919319  0.18808163    -0.35400
C147        C  0.41238485  0.27929282  0.16117518     0.00800
C148        C  0.45456995  0.30827499  0.16157224     0.06830
C149        C  0.47148995  0.29395275  0.19004582    -0.06270
H150        H  0.38881020  0.28030178  0.14300796     0.07500
H151        H  0.50399768  0.30871501  0.19884537     0.08700
Cu152      Cu  0.34526147  0.19943064  0.20084614     0.44170
Cu153      Cu  0.44454225  0.21952106  0.24944167     0.41990
Cu154      Cu  0.34163843  0.13060089  0.27342397     0.43880
N155        N  0.28886423  0.15044370  0.22180432    -0.34920
N156        N  0.28802920  0.12434739  0.24920501    -0.29180
C157        C  0.24825664  0.09683283  0.25944953    -0.05280
C158        C  0.22260072  0.10660295  0.23800323     0.06940
C159        C  0.24937329  0.14042266  0.21385123     0.00730
H160        H  0.23901076  0.07170940  0.28096155     0.08390
H161        H  0.24089182  0.15737470  0.19324041     0.07460
N162        N  0.39655340  0.13978438  0.29733165    -0.36370
N163        N  0.43453847  0.17164006  0.28953048    -0.28550
C164        C  0.46242976  0.16567778  0.30995749    -0.03790
C165        C  0.44056553  0.12796225  0.33087323     0.04820
C166        C  0.39901391  0.11303146  0.32246985     0.02910
H167        H  0.49600992  0.18651972  0.30879554     0.08020
H168        H  0.37217963  0.08454729  0.33371491     0.06850
N169        N  0.74009910  0.55691580  0.29393741    -0.27540
N170        N  0.74873336  0.59374660  0.30818094    -0.35400
C171        C  0.71881925  0.58808089  0.33442349     0.00800
C172        C  0.68991832  0.54589272  0.33706421     0.06830
C173        C  0.70414239  0.52680538  0.31107927    -0.06270
H174        H  0.71803758  0.61301854  0.35027503     0.07500
H175        H  0.68940592  0.49366372  0.30494414     0.08700
Cu176      Cu  0.79898790  0.65174504  0.29178737     0.44170
Cu177      Cu  0.77707673  0.54957398  0.25084747     0.41990
Cu178      Cu  0.85319103  0.65112308  0.20712467     0.43880
N179        N  0.84696125  0.70675086  0.26692293    -0.34920
N180        N  0.86622984  0.70634957  0.23365344    -0.29180
C181        C  0.89507309  0.74582151  0.22323523    -0.05280
C182        C  0.89429072  0.77234749  0.25185371     0.06940
C183        C  0.86320314  0.74662518  0.27899132     0.00730
H184        H  0.91545240  0.75448115  0.19718021     0.08390
H185        H  0.85288188  0.75624377  0.30518335     0.07460
N186        N  0.84613014  0.59495721  0.18984275    -0.36370
N187        N  0.82008092  0.55774980  0.20563889    -0.28550
C188        C  0.82690610  0.52931215  0.18752067    -0.03790
C189        C  0.85859857  0.55005615  0.15901844     0.04820
C190        C  0.86974273  0.59141666  0.16163629     0.02910
H191        H  0.80979745  0.49615616  0.19420677     0.08020
H192        H  0.89406692  0.61752806  0.14472457     0.06850
N193        N  0.82622456  0.25460115  0.70795607    -0.27540
N194        N  0.85929133  0.25173821  0.69943379    -0.35400
C195        C  0.88653203  0.28520622  0.67770029     0.00800
C196        C  0.87014881  0.31056534  0.67229810     0.06830
C197        C  0.83157242  0.29005098  0.69131547    -0.06270
H198        H  0.91592523  0.29037651  0.66607868     0.07500
H199        H  0.80927394  0.30025365  0.69320549     0.08700
Cu200      Cu  0.86766274  0.20307880  0.71558938     0.44170
Cu201      Cu  0.77642719  0.21119089  0.74330500     0.41990
Cu202      Cu  0.78883376  0.12504469  0.77667161     0.43880
N203        N  0.86921768  0.15099973  0.73390906    -0.34920
N204        N  0.83930753  0.12160594  0.75646597    -0.29180
C205        C  0.84854839  0.09202539  0.76450101    -0.05280
C206        C  0.88655633  0.10356312  0.74643374     0.06940
C207        C  0.89851885  0.14103695  0.72693279     0.00730
H208        H  0.82884757  0.06424062  0.78219901     0.08390
H209        H  0.92693077  0.16021777  0.70986437     0.07460
N210        N  0.74230843  0.13503534  0.79673934    -0.36370
N211        N  0.73670645  0.16552443  0.78436007    -0.28550
C212        C  0.70408226  0.16287912  0.80463301    -0.03790
C213        C  0.68918794  0.12955811  0.83129829     0.04820
C214        C  0.71392128  0.11255959  0.82530058     0.02910
H215        H  0.69301005  0.18437665  0.80121292     0.08020
H216        H  0.71183249  0.08609627  0.84102946     0.06850
N217        N  0.17308209  0.75038437  0.70108698    -0.27540
N218        N  0.14869168  0.75995085  0.68061671    -0.35400
C219        C  0.12482426  0.72886443  0.65495477     0.00800
C220        C  0.13466805  0.69819842  0.65892625     0.06830
C221        C  0.16511796  0.71245053  0.68875035    -0.06270
H222        H  0.10301094  0.72931873  0.63370066     0.07500
H223        H  0.18154509  0.69737486  0.69927860     0.08700
Cu224      Cu  0.14949325  0.81541395  0.68441907     0.44170
Cu225      Cu  0.21786065  0.79176080  0.74214291     0.41990
Cu226      Cu  0.22139609  0.89286477  0.74965454     0.43880
N227        N  0.15113858  0.87094541  0.69226062    -0.34920
N228        N  0.17815873  0.90043172  0.71676568    -0.29180
C229        C  0.16708443  0.92924290  0.72144891    -0.05280
C230        C  0.13140781  0.91734784  0.69862188     0.06940
C231        C  0.12216327  0.87999338  0.68081135     0.00730
H232        H  0.18076953  0.95400787  0.74365459     0.08390
H233        H  0.09368139  0.85848328  0.66487094     0.07460
N234        N  0.25858566  0.87679204  0.78272149    -0.36370
N235        N  0.25812257  0.84114083  0.77996741    -0.28550
C236        C  0.28635514  0.84216470  0.80618234    -0.03790
C237        C  0.30483029  0.87988472  0.82680595     0.04820
C238        C  0.28660835  0.90099593  0.81092126     0.02910
H239        H  0.29223741  0.81692513  0.81060146     0.08020
H240        H  0.29331476  0.93191646  0.81917052     0.06850
C241        C  0.97975748  0.01845202  0.75566245     0.02040
C242        C  0.95671308  0.97454718  0.75377123     0.02040
C243        C  0.97767370  0.95236627  0.75140726     0.02040
C244        C  0.02204179  0.97392731  0.75350009     0.02040
C245        C  0.04503585  0.01717927  0.76634188     0.02040
C246        C  0.02374959  0.04019300  0.76252237     0.02040
N247        N  0.43881459  0.26642984  0.78565706    -0.27540
N248        N  0.40238512  0.26363346  0.79116980    -0.35400
C249        C  0.40692609  0.29324920  0.81697651     0.00800
C250        C  0.44794320  0.31553104  0.82943037     0.06830
C251        C  0.46776292  0.29832139  0.80854763    -0.06270
H252        H  0.38153128  0.29691417  0.82734643     0.07500
H253        H  0.50011595  0.30692428  0.81133117     0.08700
Cu254      Cu  0.34540769  0.21569496  0.77213033     0.44170
Cu255      Cu  0.44451871  0.22372952  0.74924082     0.41990
Cu256      Cu  0.34006753  0.13447541  0.71758549     0.43880
N257        N  0.28986326  0.16052011  0.76434169    -0.34920
N258        N  0.28724001  0.12948290  0.74302693    -0.29180
C259        C  0.24765569  0.09690040  0.74440450    -0.05280
C260        C  0.22452082  0.10778988  0.76892870     0.06940
C261        C  0.25245245  0.14865508  0.78059459     0.00730
H262        H  0.23673224  0.06747391  0.72895925     0.08390
H263        H  0.24652804  0.16820375  0.80019633     0.07460
N264        N  0.39730978  0.14456566  0.69884693    -0.36370
N265        N  0.43481341  0.17543471  0.70996216    -0.28550
C266        C  0.46396609  0.16992392  0.69169363    -0.03790
C267        C  0.44357308  0.13423200  0.66782185     0.04820
C268        C  0.40156453  0.11904750  0.67350710     0.02910
H269        H  0.49737197  0.19002702  0.69589076     0.08020
H270        H  0.37570472  0.09107816  0.66028844     0.06850
N271        N  0.26615437  0.43931773  0.71324986    -0.27540
N272        N  0.26235148  0.40298295  0.70388761    -0.35400
C273        C  0.29365302  0.40964530  0.67913751     0.00800
C274        C  0.31839853  0.45197889  0.67224141     0.06830
C275        C  0.30016458  0.47013136  0.69405398    -0.06270
H276        H  0.29750815  0.38521683  0.66622459     0.07500
H277        H  0.31060158  0.50306900  0.69563177     0.08700
Cu278      Cu  0.21421735  0.34425825  0.72098131     0.44170
Cu279      Cu  0.22427724  0.44475614  0.75128750     0.41990
Cu280      Cu  0.13394758  0.34194628  0.77669031     0.43880
N281        N  0.16089091  0.28835149  0.73621580    -0.34920
N282        N  0.13022981  0.28774632  0.75650186    -0.29180
C283        C  0.09978736  0.24784368  0.76280449    -0.05280
C284        C  0.11179667  0.22165967  0.74568623     0.06940
C285        C  0.15099987  0.24874726  0.72913253     0.00730
H286        H  0.07133406  0.23870076  0.77935008     0.08390
H287        H  0.17171723  0.24061298  0.71450881     0.07460
N288        N  0.14284260  0.39822870  0.79734200    -0.36370
N289        N  0.17514698  0.43584409  0.78893048    -0.28550
C290        C  0.16949910  0.46472463  0.80770722    -0.03790
C291        C  0.13153320  0.44402347  0.82814951     0.04820
C292        C  0.11607259  0.40204134  0.82130390     0.02910
H293        H  0.19094945  0.49819883  0.80601186     0.08020
H294        H  0.08720846  0.37593788  0.83286546     0.06850
N295        N  0.55939059  0.73453355  0.78916926    -0.27540
N296        N  0.59642584  0.74018723  0.79864962    -0.35400
C297        C  0.59150526  0.71146353  0.82598145     0.00800
C298        C  0.54952275  0.68646479  0.83464801     0.06830
C299        C  0.52976059  0.70153016  0.81051217    -0.06270
H300        H  0.61694464  0.70989315  0.83977345     0.07500
H301        H  0.49670974  0.69064274  0.80994442     0.08700
Cu302      Cu  0.65389555  0.78801288  0.77868268     0.44170
Cu303      Cu  0.55232657  0.77497094  0.75050243     0.41990
Cu304      Cu  0.65530754  0.86615381  0.72144947     0.43880
N305        N  0.70942752  0.83883131  0.75875229    -0.34920
N306        N  0.71008607  0.86834395  0.73624961    -0.29180
C307        C  0.75002318  0.89743593  0.72749843    -0.05280
C308        C  0.77572776  0.88560165  0.74581296     0.06940
C309        C  0.74887815  0.84841584  0.76558317     0.00730
H310        H  0.75961081  0.92567539  0.71029944     0.08390
H311        H  0.75741289  0.82982323  0.78373960     0.07460
N312        N  0.59788081  0.85776424  0.70612868    -0.36370
N313        N  0.56057950  0.82497922  0.71458896    -0.28550
C314        C  0.53130442  0.82965715  0.69531683    -0.03790
C315        C  0.55143957  0.86738943  0.67433095     0.04820
C316        C  0.59341348  0.88398624  0.68199834     0.02910
H317        H  0.49818700  0.80653447  0.69510051     0.08020
H318        H  0.61923198  0.91233532  0.66923916     0.06850
N319        N  0.73159467  0.55395031  0.71196695    -0.27540
N320        N  0.73587939  0.59033275  0.70188346    -0.35400
C321        C  0.70370951  0.58373997  0.67862508     0.00800
C322        C  0.67753197  0.54130992  0.67355499     0.06830
C323        C  0.69626409  0.52305530  0.69455444    -0.06270
H324        H  0.69965455  0.60826999  0.66624045     0.07500
H325        H  0.68469209  0.48996037  0.69762721     0.08700
Cu326      Cu  0.78322917  0.64907115  0.71872092     0.44170
Cu327      Cu  0.77325235  0.54893711  0.75080018     0.41990
Cu328      Cu  0.85144419  0.65251975  0.79087550     0.43880
N329        N  0.83054479  0.70536541  0.74077581    -0.34920
N330        N  0.85573674  0.70643683  0.76929743    -0.29180
C331        C  0.88370092  0.74645620  0.77845708    -0.05280
C332        C  0.87566836  0.77187742  0.75433151     0.06940
C333        C  0.84184805  0.74474977  0.73054744     0.00730
H334        H  0.90883133  0.75627350  0.80009064     0.08390
H335        H  0.82663473  0.75297149  0.70761543     0.07460
N336        N  0.84813310  0.59718848  0.80557872    -0.36370
N337        N  0.82060249  0.55944643  0.79181571    -0.28550
C338        C  0.82970532  0.53172911  0.80783050    -0.03790
C339        C  0.86477140  0.55344392  0.83242883     0.04820
C340        C  0.87529021  0.59467180  0.83008771     0.02910
H341        H  0.81277051  0.49857002  0.80123441     0.08020
H342        H  0.90109320  0.62124175  0.84511492     0.06850
O343        O  0.47166670  0.94134612  0.54540326    -0.73190
O344        O  0.45502483  0.00772151  0.45960087    -0.74170
O345        O  0.47161028  0.94142779  0.45961823    -0.62790
O346        O  0.45518839  0.00759548  0.54560389    -0.71200
O347        O  0.52303490  0.05514478  0.54555423    -0.70750
O348        O  0.53931237  0.98931736  0.45965107    -0.62010
O349        O  0.52273468  0.05578685  0.45999139    -0.74520
O350        O  0.53962469  0.98866888  0.54457841    -0.73300
Cu351      Cu  0.46094046  0.97300200  0.50255965     1.04560
Cu352      Cu  0.53351889  0.02387869  0.50244724     1.04330
C353        C  0.50881684  0.95419495  0.55763320     0.93010
C354        C  0.48589054  0.04210840  0.44635862     0.92150
C355        C  0.50867522  0.95464266  0.44684593     0.84290
C356        C  0.48623477  0.04152524  0.55924928     0.90560
O357        O  0.44816778  0.98975721  0.04441324    -0.73190
O358        O  0.52889148  0.05684381  0.95587074    -0.74170
O359        O  0.44357581  0.99052403  0.95920070    -0.62790
O360        O  0.53223286  0.05592058  0.04135562    -0.71200
O361        O  0.55176831  0.00893149  0.03849253    -0.70750
O362        O  0.46295583  0.94370031  0.95448735    -0.62010
O363        O  0.54867973  0.01002143  0.95350105    -0.74520
O364        O  0.46667336  0.94216518  0.04024817    -0.73300
Cu365      Cu  0.48743923  0.02479917  0.00020286     1.04560
Cu366      Cu  0.50818135  0.97451319  0.99648384     1.04330
C367        C  0.44460916  0.95543605  0.05626414     0.93010
C368        C  0.55240899  0.04435776  0.94169534     0.92150
C369        C  0.43863643  0.95674361  0.94413295     0.84290
C370        C  0.55600701  0.04273891  0.05284430     0.90560
O371        O  0.44581660  0.45950791  0.45470663    -0.73190
O372        O  0.52265596  0.46556793  0.54260316    -0.74170
O373        O  0.44314165  0.45847848  0.54077741    -0.62790
O374        O  0.52544657  0.46690585  0.45712928    -0.71200
O375        O  0.55418639  0.53600127  0.45667416    -0.70750
O376        O  0.47320005  0.52772804  0.54155397    -0.62010
O377        O  0.55271430  0.53479150  0.54271011    -0.74520
O378        O  0.47415149  0.52847134  0.45585672    -0.73300
Cu379      Cu  0.48310293  0.46018893  0.49875171     1.04560
Cu380      Cu  0.51469396  0.53420098  0.49919229     1.04330
C381        C  0.44742146  0.49256030  0.44163626     0.93010
C382        C  0.55024151  0.50142503  0.55615774     0.92150
C383        C  0.44532609  0.49161192  0.55437511     0.84290
C384        C  0.55294058  0.50304702  0.44395654     0.90560
C385        C  0.63628807  0.49832982  0.61507187    -0.26570
C386        C  0.63892127  0.52193842  0.64913924    -0.14640
C387        C  0.60892107  0.53391381  0.65453384     0.35990
C388        C  0.57998805  0.52584618  0.62380380    -0.26010
C389        C  0.57904766  0.50477816  0.58843134    -0.15250
C390        C  0.60686761  0.48973504  0.58436512     0.37080
N391        N  0.60801935  0.46794726  0.54894630    -0.89500
H392        H  0.65928603  0.48922394  0.61078541     0.18190
H393        H  0.55817411  0.53658096  0.62744933     0.18180
N394        N  0.60743831  0.55505975  0.69032891    -0.88530
H395        H  0.63733999  0.48640313  0.53540052     0.35560
H396        H  0.58605622  0.46436839  0.52738051     0.40660
H397        H  0.62815835  0.55653192  0.71238656     0.40280
H398        H  0.57766967  0.53668808  0.70302763     0.35170
C399        C  0.55680641  0.89739134  0.60693238    -0.26570
C400        C  0.53493548  0.88417651  0.64370081    -0.14640
C401        C  0.50170509  0.89139503  0.65087426     0.35990
C402        C  0.49261160  0.91296894  0.62159853    -0.26010
C403        C  0.51670614  0.92864499  0.58624092    -0.15250
C404        C  0.54853861  0.91994739  0.57846537     0.37080
N405        N  0.57201680  0.93344243  0.54138754    -0.89500
H406        H  0.58165410  0.89122265  0.60089518     0.18190
H407        H  0.46787960  0.91935108  0.62745776     0.18180
N408        N  0.47834467  0.87997841  0.68803325    -0.88530
H409        H  0.59155027  0.92119157  0.53882860     0.35560
H410        H  0.59186894  0.96591251  0.54287681     0.40660
H411        H  0.48929913  0.86691642  0.70886696     0.40280
H412        H  0.44743249  0.85710461  0.68122829     0.35170
C413        C  0.34814418  0.47840573  0.60447668    -0.26570
C414        C  0.35472105  0.47148081  0.64482212    -0.14640
C415        C  0.39315008  0.47523104  0.65591897     0.35990
C416        C  0.42290366  0.48322119  0.62589855    -0.26010
C417        C  0.41530183  0.48786339  0.58530798    -0.15250
C418        C  0.37811824  0.48643674  0.57446254     0.37080
N419        N  0.37044356  0.49181090  0.53290487    -0.89500
H420        H  0.31851015  0.47503610  0.59600285     0.18190
H421        H  0.45173831  0.48470186  0.63417382     0.18180
N422        N  0.40243794  0.46971502  0.69690786    -0.88530
H423        H  0.34169037  0.49004389  0.53000796     0.35560
H424        H  0.36805131  0.46677490  0.51639364     0.40660
H425        H  0.37860631  0.46491950  0.71673957     0.40280
H426        H  0.42898418  0.49773190  0.70593240     0.35170
C427        C  0.50034864  0.10956115  0.58681338    -0.26570
C428        C  0.47923486  0.06576798  0.59023796    -0.14640
C429        C  0.45047554  0.04577846  0.62207684     0.35990
C430        C  0.44188489  0.06982036  0.64840705    -0.26010
C431        C  0.46061639  0.11326345  0.64331749    -0.15250
C432        C  0.49098048  0.13360442  0.61242460     0.37080
N433        N  0.51065773  0.17759878  0.60388904    -0.89500
H434        H  0.52253525  0.12505319  0.56240192     0.18190
H435        H  0.41911224  0.05424451  0.67234646     0.18180
N436        N  0.43040464  0.00128061  0.62795120    -0.88530
H437        H  0.54247570  0.19148504  0.61060569     0.35560
H438        H  0.49892479  0.19221696  0.62165934     0.40660
H439        H  0.40814608  0.98671208  0.60506387     0.40280
H440        H  0.41364169  0.99238332  0.65512834     0.35170
C441        C  0.11310938  0.01686196  0.78203735    -0.26570
C442        C  0.09106294  0.03820967  0.78058300    -0.14640
C443        C  0.11459139  0.07937742  0.79642698     0.35990
C444        C  0.15784839  0.10257836  0.78996378    -0.26010
C445        C  0.17936072  0.08241807  0.77903751    -0.15250
C446        C  0.15692353  0.03820228  0.78068183     0.37080
N447        N  0.17709014  0.01424287  0.78335044    -0.89500
H448        H  0.09724682  0.98386329  0.78705639     0.18190
H449        H  0.17480050  0.13559320  0.79722995     0.18180
N450        N  0.09946744  0.09197889  0.83003370    -0.88530
H451        H  0.16379743  0.99353161  0.80771269     0.35560
H452        H  0.20830325  0.03335685  0.79186554     0.40660
H453        H  0.06824838  0.07003727  0.83609631     0.40280
H454        H  0.10417171  0.12169629  0.82452912     0.35170
C455        C  0.07401333  0.10629855  0.72683843    -0.26570
C456        C  0.04694336  0.08699025  0.75979306    -0.14640
C457        C  0.04052525  0.11239961  0.78737756     0.35990
C458        C  0.06160540  0.15571982  0.78143680    -0.26010
C459        C  0.08916564  0.17514000  0.74889033    -0.15250
C460        C  0.09491644  0.14986300  0.72104125     0.37080
N461        N  0.12085869  0.16790899  0.68612300    -0.89500
H462        H  0.07843908  0.08724024  0.70503304     0.18190
H463        H  0.05746719  0.17444921  0.80380358     0.18180
N464        N  0.01687052  0.09638392  0.82416280    -0.88530
H465        H  0.10250327  0.15406094  0.66040178     0.35560
H466        H  0.14416814  0.16032423  0.68685567     0.40660
H467        H  0.00366827  0.06413167  0.82702553     0.40280
H468        H  0.99275660  0.10279174  0.82388676     0.35170
C469        C  0.93901933  0.88491953  0.78718481    -0.26570
C470        C  0.95194625  0.90592994  0.75002808    -0.14640
C471        C  0.93659768  0.88287449  0.71366823     0.35990
C472        C  0.91062431  0.83908956  0.71569679    -0.26010
C473        C  0.89978351  0.81807577  0.75309846    -0.15250
C474        C  0.91354632  0.84142219  0.78907834     0.37080
N475        N  0.90142358  0.82113970  0.82771209    -0.89500
H476        H  0.95020970  0.90243354  0.81512065     0.18190
H477        H  0.89974836  0.82131746  0.68784540     0.18180
N478        N  0.94689210  0.90253907  0.67451820    -0.88530
H479        H  0.88576300  0.83325808  0.84350347     0.35560
H480        H  0.92860769  0.82881566  0.84377447     0.40660
H481        H  0.96676195  0.93491702  0.67677202     0.40280
H482        H  0.91913111  0.89735468  0.66137142     0.35170
C483        C  0.89031004  0.94813655  0.71516030    -0.26570
C484        C  0.91004554  0.95161981  0.75234242    -0.14640
C485        C  0.88531106  0.93444084  0.78762138     0.35990
C486        C  0.84168784  0.91267264  0.78436394    -0.26010
C487        C  0.82194748  0.90895744  0.74721516    -0.15250
C488        C  0.84652119  0.92736389  0.71241498     0.37080
N489        N  0.82714508  0.92417677  0.67411560    -0.89500
H490        H  0.90907084  0.96181604  0.68820069     0.18190
H491        H  0.82300552  0.89946949  0.81145271     0.18180
N492        N  0.90311535  0.93998965  0.82738495    -0.88530
H493        H  0.83680442  0.90929297  0.65389987     0.35560
H494        H  0.83815288  0.95450449  0.66340760     0.40660
H495        H  0.93574074  0.95736222  0.82677047     0.40280
H496        H  0.89398735  0.91042685  0.83904434     0.35170
C497        C  0.07065652  0.90633336  0.73787792    -0.26570
C498        C  0.10014177  0.92904780  0.70783967    -0.14640
C499        C  0.10090325  0.96355886  0.68967465     0.35990
C500        C  0.07166630  0.97454517  0.70213780    -0.26010
C501        C  0.04411442  0.95382229  0.73474579    -0.15250
C502        C  0.04381129  0.91906980  0.75249096     0.37080
N503        N  0.02124140  0.90047056  0.78896900    -0.89500
H504        H  0.07078571  0.88036772  0.75248935     0.18190
H505        H  0.07270726  0.00160061  0.68876799     0.18180
N506        N  0.13203023  0.98796120  0.65971209    -0.88530
H507        H  0.00292384  0.86814208  0.78430415     0.35560
H508        H  0.04281748  0.90558520  0.81175332     0.40660
H509        H  0.16125426  0.00194442  0.67389116     0.40280
H510        H  0.12839001  0.01240667  0.64944943     0.35170
C511        C  0.37193555  0.89072451  0.85491749    -0.26570
C512        C  0.33694565  0.89508310  0.85911553    -0.14640
C513        C  0.33404082  0.91621324  0.89314781     0.35990
C514        C  0.36739107  0.93508340  0.92064013    -0.26010
C515        C  0.40347825  0.93277637  0.91550910    -0.15250
C516        C  0.40519389  0.90933025  0.88266321     0.37080
N517        N  0.44086704  0.90544438  0.87558285    -0.89500
H518        H  0.37422731  0.87422288  0.82902352     0.18190
H519        H  0.36520336  0.95191272  0.94630478     0.18180
N520        N  0.29711623  0.91832317  0.89975269    -0.88530
H521        H  0.44443098  0.88995844  0.90019845     0.35560
H522        H  0.46739746  0.93543911  0.87328334     0.40660
H523        H  0.27220264  0.88777635  0.90456397     0.40280
H524        H  0.30001256  0.93511940  0.92609622     0.35170
C525        C  0.93113564  0.03847718  0.78431118    -0.26570
C526        C  0.95657977  0.04110249  0.75190241    -0.14640
C527        C  0.95793556  0.06344955  0.71666565     0.35990
C528        C  0.93514962  0.08383867  0.71573638    -0.26010
C529        C  0.91020197  0.08163405  0.74863853    -0.15250
C530        C  0.90852107  0.05877150  0.78329488     0.37080
N531        N  0.88528602  0.05732289  0.81834752    -0.89500
H532        H  0.92981071  0.02150241  0.81139140     0.18190
H533        H  0.93625206  0.10076143  0.68864362     0.18180
N534        N  0.98061359  0.06492035  0.68093621    -0.88530
H535        H  0.90598609  0.06965977  0.84277957     0.35560
H536        H  0.86344642  0.02592660  0.82470765     0.40660
H537        H  0.99474405  0.04719846  0.68419576     0.40280
H538        H  0.00449972  0.09601468  0.67651448     0.35170
C539        C  0.62729362  0.08853152  0.92797734    -0.26570
C540        C  0.58633173  0.07081525  0.91349213    -0.14640
C541        C  0.57944361  0.07676367  0.87258450     0.35990
C542        C  0.61405379  0.09901830  0.84684278    -0.26010
C543        C  0.65499554  0.11485352  0.86098781    -0.15250
C544        C  0.66176424  0.11106769  0.90252514     0.37080
N545        N  0.70291638  0.12920424  0.91987871    -0.89500
H546        H  0.63257600  0.08445953  0.95948033     0.18190
H547        H  0.60880860  0.10192403  0.81505242     0.18180
N548        N  0.53819756  0.05940476  0.85576819    -0.88530
H549        H  0.70539578  0.14977415  0.94269033     0.35560
H550        H  0.72619770  0.14767293  0.89897829     0.40660
H551        H  0.51495907  0.04327833  0.87745959     0.40280
H552        H  0.53428658  0.03739142  0.83394567     0.35170
C553        C  0.61633358  0.52554502  0.34773803    -0.26570
C554        C  0.65216039  0.52683639  0.36267108    -0.14640
C555        C  0.65328736  0.51626369  0.40361308     0.35990
C556        C  0.61928178  0.50651653  0.42890081    -0.26010
C557        C  0.58436658  0.50722333  0.41443758    -0.15250
C558        C  0.58234256  0.51584247  0.37308594     0.37080
N559        N  0.54674405  0.51545844  0.35590133    -0.89500
H560        H  0.61545285  0.53378486  0.31643317     0.18190
H561        H  0.62095098  0.50008535  0.46060760     0.18180
N562        N  0.68895814  0.51697911  0.42105300    -0.88530
H563        H  0.55642744  0.54603113  0.34694438     0.35560
H564        H  0.52281089  0.50653882  0.37703181     0.40660
H565        H  0.71229916  0.52440203  0.39962151     0.40280
H566        H  0.67908531  0.48666071  0.43104631     0.35170
C567        C  0.44745410  0.04262162  0.38571572    -0.26570
C568        C  0.47833187  0.06555045  0.41472448    -0.14640
C569        C  0.50011779  0.10980295  0.41356190     0.35990
C570        C  0.48903518  0.12999361  0.38435362    -0.26010
C571        C  0.45650856  0.10674218  0.35674891    -0.15250
C572        C  0.43676225  0.06264177  0.35641477     0.37080
N573        N  0.40591019  0.03826571  0.32620496    -0.89500
H574        H  0.43153211  0.00874063  0.38589106     0.18190
H575        H  0.50436543  0.16381896  0.38443383     0.18180
N576        N  0.53209148  0.13397850  0.44290908    -0.88530
H577        H  0.39429207  0.00631282  0.33030680     0.35560
H578        H  0.42088517  0.04630252  0.29807127     0.40660
H579        H  0.51777774  0.12768297  0.47134306     0.40280
H580        H  0.54509965  0.16600453  0.43770224     0.35170
C581        C  0.35982076  0.49488623  0.38569729    -0.26570
C582        C  0.35166304  0.46577146  0.35489303    -0.14640
C583        C  0.37903046  0.45063505  0.34935618     0.35990
C584        C  0.41157022  0.46183026  0.37706475    -0.26010
C585        C  0.41780952  0.48830760  0.40973127    -0.15250
C586        C  0.39292702  0.50655110  0.41321769     0.37080
N587        N  0.39951128  0.53450473  0.44608367    -0.89500
H588        H  0.33901868  0.50679016  0.38955737     0.18190
H589        H  0.43148332  0.44879196  0.37387052     0.18180
N590        N  0.37403919  0.42431184  0.31543025    -0.88530
H591        H  0.37714873  0.54337208  0.44544816     0.35560
H592        H  0.42847221  0.56183818  0.44147733     0.40120
H593        H  0.34821628  0.39459374  0.32108286     0.40280
H594        H  0.39965384  0.42024882  0.31321972     0.35170
C595        C  0.48715775  0.90635320  0.38737754    -0.26570
C596        C  0.51660687  0.92936480  0.41778605    -0.14640
C597        C  0.55331788  0.92748351  0.42055409     0.35990
C598        C  0.56046713  0.90416308  0.39215187    -0.26010
C599        C  0.53287041  0.88389839  0.35985405    -0.15250
C600        C  0.49509534  0.88383633  0.35803324     0.37080
N601        N  0.46615361  0.86303849  0.32545105    -0.89500
H602        H  0.45864612  0.90722734  0.38563648     0.18190
H603        H  0.58901124  0.90337718  0.39426676     0.18180
N604        N  0.58335540  0.94912303  0.45219462    -0.88530
H605        H  0.44131143  0.86834231  0.32721478     0.35560
H606        H  0.45309037  0.83087703  0.32956633     0.40660
H607        H  0.59957603  0.98100189  0.44507400     0.40280
H608        H  0.60583180  0.94039831  0.45266880     0.35170
C609        C  0.11275173  0.05666015  0.28079332    -0.26570
C610        C  0.08858475  0.04390267  0.24550371    -0.14640
C611        C  0.10872230  0.05376600  0.20732308     0.35990
C612        C  0.15256718  0.07485932  0.20573356    -0.26010
C613        C  0.17664410  0.08617788  0.24123493    -0.15250
C614        C  0.15629997  0.07806763  0.27916140     0.37080
N615        N  0.17884159  0.09274479  0.31646790    -0.89500
H616        H  0.09753287  0.04942612  0.31004667     0.18190
H617        H  0.16791242  0.08180470  0.17650115     0.18180
N618        N  0.08599713  0.04339318  0.16980400    -0.88530
H619        H  0.20025017  0.12489462  0.31399189     0.35560
H620        H  0.19484342  0.07721194  0.32211031     0.40660
H621        H  0.05372512  0.02727662  0.17451137     0.40280
H622        H  0.09254787  0.02329152  0.15385113     0.35170
C623        C  0.04973779  0.10734067  0.21347144    -0.26570
C624        C  0.04438584  0.08745691  0.25089071    -0.14640
C625        C  0.06176066  0.11204972  0.28616712     0.35990
C626        C  0.08364251  0.15570903  0.28300625    -0.26010
C627        C  0.08897613  0.17579732  0.24563299    -0.15250
C628        C  0.07195896  0.15119294  0.21049941     0.37080
N629        N  0.07809862  0.17043405  0.17159383    -0.89500
H630        H  0.03667982  0.08864328  0.18638881     0.18190
H631        H  0.09600061  0.17405433  0.31036870     0.18180
N632        N  0.05663205  0.09404534  0.32582284    -0.88530
H633        H  0.09349113  0.15986147  0.15314344     0.35560
H634        H  0.04868811  0.16025300  0.15896305     0.40660
H635        H  0.03949365  0.06140130  0.32507802     0.40280
H636        H  0.08634094  0.10311911  0.33696547     0.35170
C637        C  0.96198464  0.88489901  0.28650422    -0.26570
C638        C  0.95652949  0.90626387  0.25426155    -0.14640
C639        C  0.93461673  0.88359403  0.21921648     0.35990
C640        C  0.91630850  0.84000007  0.21869127    -0.26010
C641        C  0.91935624  0.81847221  0.25208790    -0.15250
C642        C  0.94394864  0.84138629  0.28580118     0.37080
N643        N  0.95137342  0.82185385  0.31970755    -0.89500
H644        H  0.97968995  0.90220505  0.31290365     0.18190
H645        H  0.89818707  0.82260458  0.19249273     0.18180
N646        N  0.92979570  0.90345276  0.18405716    -0.88530
H647        H  0.98369550  0.83461471  0.32176176     0.35560
H648        H  0.93855716  0.78986525  0.31508965     0.40660
H649        H  0.94602775  0.93592753  0.18693223     0.40280
H650        H  0.89806989  0.89344094  0.18142569     0.35170
C651        C  0.88786910  0.97212361  0.28995809    -0.26570
C652        C  0.90595743  0.94995636  0.27446580    -0.14640
C653        C  0.87686641  0.90657346  0.26919255     0.35990
C654        C  0.83525653  0.89342635  0.25937257    -0.26010
C655        C  0.81929050  0.91988828  0.26432647    -0.15250
C656        C  0.84590007  0.95916624  0.28295719     0.37080
N657        N  0.83237900  0.98716946  0.29465561    -0.89500
H658        H  0.90631854  0.00008223  0.30740464     0.18190
H659        H  0.81400317  0.86051926  0.25320927     0.18180
N660        N  0.88241897  0.87703200  0.29170403    -0.88530
H661        H  0.81130444  0.97389304  0.31862212     0.35560
H662        H  0.81862797  0.99280647  0.26981893     0.40660
H663        H  0.87078649  0.87516125  0.32091164     0.40280
H664        H  0.86461957  0.84735670  0.27863710     0.35170
C665        C  0.06516802  0.95436415  0.28690705    -0.26570
C666        C  0.04510310  0.95486460  0.25123570    -0.14640
C667        C  0.04852164  0.93551710  0.21615119     0.35990
C668        C  0.07169504  0.91563597  0.21740051    -0.26010
C669        C  0.09107011  0.91447531  0.25332195    -0.15250
C670        C  0.08815036  0.93450692  0.28828680     0.37080
N671        N  0.10920083  0.93626351  0.32514419    -0.89500
H672        H  0.06268687  0.96936779  0.31393154     0.18190
H673        H  0.07398002  0.90044026  0.19042158     0.18180
N674        N  0.02822602  0.93564284  0.17944854    -0.88530
H675        H  0.14107378  0.94970977  0.31891482     0.35560
H676        H  0.09744623  0.90582484  0.33576242     0.40660
H677        H  0.05095187  0.94929556  0.15682311     0.40280
H678        H  0.00767864  0.90452192  0.17109410     0.35170
C679        C  0.35817140  0.86727039  0.11835233    -0.26570
C680        C  0.35212649  0.89036098  0.14814864    -0.14640
C681        C  0.37993880  0.93421335  0.15030665     0.35990
C682        C  0.41042603  0.95424396  0.12045114    -0.26010
C683        C  0.41486599  0.93161802  0.08906860    -0.15250
C684        C  0.38927444  0.88740066  0.08882057     0.37080
N685        N  0.39230072  0.86239821  0.05770398    -0.89500
H686        H  0.33696449  0.83369188  0.11649356     0.18190
H687        H  0.43075828  0.98799564  0.12169899     0.18180
N688        N  0.37852223  0.95938563  0.18245411    -0.88530
H689        H  0.42204150  0.86622850  0.05892160     0.35560
H690        H  0.38841073  0.87288728  0.02961768     0.40660
H691        H  0.35837215  0.94114871  0.20569067     0.40280
H692        H  0.36740203  0.97771343  0.17036633     0.35170
C693        C  0.91196037  0.06317250  0.21608573    -0.26570
C694        C  0.91678422  0.09085633  0.24734317    -0.14640
C695        C  0.94125797  0.09449652  0.28130714     0.35990
C696        C  0.96056318  0.07098063  0.28324508    -0.26010
C697        C  0.95549368  0.04294999  0.25230871    -0.15250
C698        C  0.93129112  0.03947910  0.21790185     0.37080
N699        N  0.92610083  0.01294019  0.18416344    -0.89500
H700        H  0.89347054  0.06030294  0.18966209     0.18190
H701        H  0.97790045  0.07293988  0.31022291     0.18180
N702        N  0.94510184  0.12045837  0.31490135    -0.88530
H703        H  0.89473686  0.98877701  0.18353370     0.35560
H704        H  0.94406911  0.99910865  0.18732295     0.40660
H705        H  0.97690567  0.14211852  0.31941674     0.40280
H706        H  0.93365193  0.10156709  0.34069433     0.35170
C707        C  0.61656398  0.09956145  0.14756846    -0.26570
C708        C  0.65770648  0.11519042  0.13429144    -0.14640
C709        C  0.66503709  0.10933888  0.09343491     0.35990
C710        C  0.63096323  0.08489593  0.06807903    -0.26010
C711        C  0.58981766  0.06773597  0.08173809    -0.15250
C712        C  0.58235604  0.07574156  0.12182515     0.37080
N713        N  0.54089777  0.05902974  0.13795222    -0.89500
H714        H  0.61084404  0.10391466  0.17882609     0.18190
H715        H  0.63672887  0.07972013  0.03709242     0.18180
N716        N  0.70643116  0.12767434  0.07660126    -0.88530
H717        H  0.53721205  0.03893027  0.16177829     0.35560
H718        H  0.51784814  0.04077887  0.11680235     0.40660
H719        H  0.72920005  0.14821321  0.09691717     0.40280
H720        H  0.70827983  0.14633728  0.05210929     0.35170
C721        C  0.89022212  0.55326507  0.09250315    -0.26570
C722        C  0.87793399  0.53408599  0.13068149    -0.14640
C723        C  0.88804239  0.50377498  0.14181804     0.35990
C724        C  0.91160477  0.49458850  0.11493326    -0.26010
C725        C  0.92592955  0.51597465  0.07796338    -0.15250
C726        C  0.91407195  0.54459458  0.06611825     0.37080
N727        N  0.92644082  0.56482489  0.02724953    -0.89500
H728        H  0.88171575  0.57579233  0.08339574     0.18190
H729        H  0.92040548  0.47215202  0.12355565     0.18180
N730        N  0.87603748  0.48384719  0.18077481    -0.88530
H731        H  0.91541491  0.58526153  0.02325446     0.35560
H732        H  0.91194853  0.54165583  0.00508782     0.40660
H733        H  0.89205692  0.50692646  0.20271191     0.40280
H734        H  0.88578145  0.46229731  0.18404326     0.35170
C735        C  0.07096053  0.44121394  0.14371091    -0.26570
C736        C  0.11483493  0.46383176  0.14137875    -0.14640
C737        C  0.13489704  0.49769591  0.11374059     0.35990
C738        C  0.11032881  0.50640545  0.08810829    -0.26010
C739        C  0.06641912  0.48152228  0.08837383    -0.15250
C740        C  0.04651298  0.44931209  0.11738466     0.37080
N741        N  0.00163474  0.42499644  0.12029254    -0.89500
H742        H  0.05551706  0.41573319  0.16525317     0.18190
H743        H  0.12586103  0.53133852  0.06602805     0.18180
N744        N  0.17951638  0.52195148  0.10842212    -0.88530
H745        H  0.99239852  0.40610293  0.14614938     0.35560
H746        H  0.99054448  0.40439642  0.09575633     0.40660
H747        H  0.19498721  0.51114011  0.12622206     0.40280
H748        H  0.18977446  0.55257119  0.11762562     0.35170
C749        C  0.04759883  0.45490238  0.88062805    -0.26570
C750        C  0.07035970  0.48313173  0.91170408    -0.14640
C751        C  0.11444248  0.50278029  0.91213740     0.35990
C752        C  0.13432081  0.49134906  0.88292523    -0.26010
C753        C  0.11105393  0.46141120  0.85305986    -0.15250
C754        C  0.06731381  0.44464763  0.85085949     0.37080
N755        N  0.04193285  0.41805737  0.81835103    -0.89500
H756        H  0.01394127  0.44087393  0.87916831     0.18190
H757        H  0.16781074  0.50442254  0.88456376     0.18180
N758        N  0.13856342  0.53220191  0.94344811    -0.88530
H759        H  0.02421893  0.38752034  0.82954142     0.35560
H760        H  0.05996724  0.41821469  0.79417066     0.40660
H761        H  0.13697809  0.55903656  0.93868285     0.40280
H762        H  0.17015232  0.54165649  0.94081807     0.35170
C763        C  0.93194660  0.56430623  0.85801665    -0.26570
C764        C  0.88828410  0.53827457  0.85582329    -0.14640
C765        C  0.86832472  0.50076094  0.87841470     0.35990
C766        C  0.89240225  0.49130714  0.90427002    -0.26010
C767        C  0.93584820  0.51883012  0.90827830    -0.15250
C768        C  0.95595536  0.55496760  0.88363822     0.37080
N769        N  0.00066698  0.58233534  0.88488431    -0.89500
H770        H  0.94749630  0.59257542  0.83989903     0.18190
H771        H  0.87684521  0.46335511  0.92282248     0.18180
N772        N  0.82368416  0.47341686  0.87651965    -0.88530
H773        H  0.01035406  0.60778849  0.86534833     0.35560
H774        H  0.01395375  0.56549418  0.87401665     0.40660
H775        H  0.81015488  0.48951846  0.88870080     0.40280
H776        H  0.81404143  0.44706103  0.89476785     0.35170
C777        C  0.47753036  0.38268083  0.15274756    -0.26570
C778        C  0.47523995  0.34667940  0.13697905    -0.14640
C779        C  0.48530339  0.34587275  0.09583498     0.35990
C780        C  0.49536314  0.38036493  0.07110808    -0.26010
C781        C  0.49517853  0.41530108  0.08633786    -0.15250
C782        C  0.48724803  0.41703924  0.12791190     0.37080
N783        N  0.48826941  0.45267540  0.14580894    -0.89500
H784        H  0.46960075  0.38325092  0.18420488     0.18190
H785        H  0.50135662  0.37898872  0.03920369     0.18180
N786        N  0.48372938  0.31005378  0.07769259    -0.88530
H787        H  0.45790419  0.44318612  0.15522358     0.35560
H788        H  0.49715349  0.47688509  0.12497196     0.40660
H789        H  0.47645692  0.28650766  0.09889625     0.40280
H790        H  0.51376481  0.31962866  0.06713570     0.35170
C791        C  0.49656900  0.38860339  0.85231663    -0.26570
C792        C  0.46437520  0.34768728  0.86141457    -0.14640
C793        C  0.44503143  0.33902360  0.89990074     0.35990
C794        C  0.45585284  0.37166770  0.92700375    -0.26010
C795        C  0.48619555  0.41299701  0.91711811    -0.15250
C796        C  0.50780282  0.42135228  0.87987516     0.37080
N797        N  0.53965990  0.46286417  0.86845739    -0.89500
H798        H  0.51171899  0.39546116  0.82299313     0.18190
H799        H  0.44012887  0.36468869  0.95605899     0.18180
N800        N  0.41493000  0.29730564  0.91270399    -0.88530
H801        H  0.56414752  0.47374919  0.88930501     0.35560
H802        H  0.52708542  0.48219938  0.86964920     0.40660
H803        H  0.42793648  0.27853944  0.90905760     0.40280
H804        H  0.38812038  0.28543752  0.89487785     0.35170
C805        C  0.49451915  0.60210560  0.09299862    -0.26570
C806        C  0.52125081  0.58603638  0.09097655    -0.14640
C807        C  0.55634391  0.60255787  0.11681817     0.35990
C808        C  0.56578821  0.63679472  0.14157691    -0.26010
C809        C  0.54084289  0.65483520  0.14159721    -0.15250
C810        C  0.50410880  0.63660811  0.11791270     0.37080
N811        N  0.47783981  0.65426640  0.11768472    -0.89500
H812        H  0.46731747  0.58921187  0.07348233     0.18190
H813        H  0.59337307  0.64999859  0.16059267     0.18180
N814        N  0.58257892  0.58482559  0.11755087    -0.88530
H815        H  0.45198077  0.63697451  0.09882214     0.35560
H816        H  0.49508936  0.68423151  0.10508216     0.40660
H817        H  0.56454719  0.55421907  0.12851445     0.40280
H818        H  0.60734386  0.60095528  0.13787606     0.35170
C819        C  0.50322449  0.61204482  0.85511441    -0.26570
C820        C  0.53187670  0.65367428  0.86618409    -0.14640
C821        C  0.54872152  0.66238200  0.90581930     0.35990
C822        C  0.53972452  0.62929895  0.93188793    -0.26010
C823        C  0.51303961  0.58765129  0.92017724    -0.15250
C824        C  0.49333422  0.57875354  0.88200733     0.37080
N825        N  0.46575622  0.53609047  0.86974486    -0.89500
H826        H  0.49042145  0.60538704  0.82474839     0.18190
H827        H  0.55392253  0.63621507  0.96169442     0.18180
N828        N  0.57484140  0.70431689  0.92078890    -0.88530
H829        H  0.45526618  0.53493328  0.84015761     0.35560
H830        H  0.43928994  0.52349123  0.88828038     0.40660
H831        H  0.57563336  0.72659066  0.90109483     0.40280
H832        H  0.60526778  0.71007425  0.92350735     0.35170
C833        C  0.88738984  0.38483421  0.41733629    -0.26570
C834        C  0.93062469  0.41275533  0.41318488    -0.14640
C835        C  0.95187562  0.40934107  0.37962265     0.35990
C836        C  0.93008414  0.37635070  0.35224974    -0.26010
C837        C  0.88739616  0.34676916  0.35751984    -0.15250
C838        C  0.86551436  0.35142428  0.38996342     0.37080
N839        N  0.82191696  0.32122966  0.39619768    -0.89500
H840        H  0.87120619  0.38775168  0.44317137     0.18190
H841        H  0.94673984  0.37323106  0.32695978     0.18180
N842        N  0.99565388  0.43925700  0.37373667    -0.88530
H843        H  0.81061367  0.32928950  0.42138396     0.35560
H844        H  0.81924750  0.29257903  0.40302097     0.40660
H845        H  0.99888555  0.46847657  0.36880393     0.40280
H846        H  0.00666263  0.43223150  0.34764533     0.35170
C847        C  0.86660634  0.35128494  0.61507431    -0.26570
C848        C  0.88923331  0.34918664  0.64792916    -0.14640
C849        C  0.93167936  0.38093830  0.65304143     0.35990
C850        C  0.95125672  0.41172150  0.62327373    -0.26010
C851        C  0.92942429  0.41252282  0.58914147    -0.15250
C852        C  0.88621059  0.38218801  0.58514970     0.37080
N853        N  0.86178622  0.37997603  0.55046812    -0.89500
H854        H  0.83412449  0.32691660  0.61104104     0.18190
H855        H  0.98413209  0.43523025  0.62674293     0.18180
N856        N  0.95596477  0.38283041  0.68770584    -0.88530
H857        H  0.85139632  0.35118036  0.53632209     0.35560
H858        H  0.87954700  0.40267638  0.52888524     0.40660
H859        H  0.93748663  0.36058252  0.70943638     0.40280
H860        H  0.96682343  0.41179967  0.70166661     0.35170
C861        C  0.09582366  0.62943065  0.56647291    -0.26570
C862        C  0.07068613  0.58996736  0.58400315    -0.14640
C863        C  0.07101717  0.58526536  0.62647415     0.35990
C864        C  0.09497018  0.62100229  0.65049220    -0.26010
C865        C  0.11838172  0.66090922  0.63290666    -0.15250
C866        C  0.12036842  0.66483428  0.59019755     0.37080
N867        N  0.14642750  0.70415130  0.56985451    -0.89500
H868        H  0.09615950  0.63285793  0.53384981     0.18190
H869        H  0.09353975  0.61785278  0.68315836     0.18180
N870        N  0.04675356  0.54533378  0.64621190    -0.88530
H871        H  0.16652175  0.70039923  0.55067679     0.35560
H872        H  0.16604522  0.72763260  0.59006622     0.40660
H873        H  0.03046196  0.52116711  0.62541575     0.40280
H874        H  0.02430307  0.54646913  0.66414303     0.35170
C875        C  0.04651425  0.58701645  0.37990089    -0.26570
C876        C  0.06796902  0.58584910  0.41420051    -0.14640
C877        C  0.11137466  0.61563255  0.41821341     0.35990
C878        C  0.13164402  0.64594421  0.38789015    -0.26010
C879        C  0.10950310  0.64825936  0.35475133    -0.15250
C880        C  0.06668087  0.61750517  0.34995705     0.37080
N881        N  0.04256774  0.61644397  0.31548528    -0.89500
H882        H  0.01347874  0.56404913  0.37643793     0.18190
H883        H  0.16433140  0.66980171  0.39180438     0.18180
N884        N  0.13540796  0.61795492  0.45327056    -0.88530
H885        H  0.03115460  0.58751518  0.30125154     0.35560
H886        H  0.06120192  0.63884392  0.29392730     0.40660
H887        H  0.11714528  0.59617655  0.47534614     0.40280
H888        H  0.14662353  0.64727885  0.46659692     0.35170
loop_ 
_geom_bond_atom_site_label_1 
_geom_bond_atom_site_label_2 
_geom_bond_distance 
_geom_bond_site_symmetry_2 
_ccdc_geom_bond_type 
O1           Cu9   2.005       .  S
O1           C11   1.276       .  A
O2           Cu9   2.003   1_655  S
O2           C12   1.278       .  A
O3           Cu9   2.003       .  S
O3           C13   1.276       .  A
O4           Cu9   2.001   1_655  S
O4           C14   1.278       .  A
O5          Cu10   2.004       .  S
O5           C14   1.277       .  A
O6          Cu10   2.006   1_455  S
O6           C13   1.278       .  A
O7          Cu10   2.012       .  S
O7           C12   1.277       .  A
O8          Cu10   2.009   1_455  S
O8           C11   1.278       .  A
Cu9         Cu10   2.377   1_455  S
C11         C862   1.467       .  S
C12         C834   1.474       .  S
C13         C876   1.473       .  S
C14         C851   1.471       .  S
O15         Cu23   2.017   1_556  S
O15          C25   1.277       .  A
O16         Cu23   2.010       .  S
O16          C26   1.278       .  A
O17         Cu23   2.013       .  S
O17          C27   1.278       .  A
O18         Cu23   2.006   1_556  S
O18          C28   1.279       .  A
O19         Cu24   2.008   1_556  S
O19          C28   1.276       .  A
O20         Cu24   2.003       .  S
O20          C27   1.278       .  A
O21         Cu24   2.008       .  S
O21          C26   1.276       .  A
O22         Cu24   2.004   1_556  S
O22          C25   1.278       .  A
Cu23        Cu24   2.373       .  S
C25         C823   1.473       .  S
C26         C781   1.469       .  S
C27         C806   1.482       .  S
C28         C795   1.475       .  S
O29         Cu37   2.016       .  S
O29          C39   1.279       .  A
O30         Cu37   2.009   1_454  S
O30          C40   1.278       .  A
O31         Cu37   2.008   1_554  S
O31          C41   1.276       .  A
O32         Cu37   2.008   1_455  S
O32          C42   1.279       .  A
O33         Cu38   2.014       .  S
O33          C42   1.277       .  A
O34         Cu38   2.011   1_654  S
O34          C41   1.279       .  A
O35         Cu38   2.007   1_554  S
O35          C40   1.277       .  A
O36         Cu38   2.002   1_655  S
O36          C39   1.278       .  A
Cu37        Cu38   2.371   1_655  S
C39         C767   1.486       .  S
C40         C739   1.481       .  S
C41         C725   1.473       .  S
C42         C750   1.481       .  S
N43          N44   1.324       .  A
N43          C47   1.351       .  A
N43         Cu51   2.093       .  S
N44          C45   1.338       .  A
N44         Cu50   2.056       .  S
C45          C46   1.376       .  A
C45          H48   1.082       .  S
C46         C708   1.474       .  S
C46          C47   1.387       .  A
C47          H49   1.082       .  S
Cu50         N53   2.055       .  S
Cu51         N61   2.093       .  S
Cu52         N54   2.061       .  S
Cu52         N60   2.062       .  S
N53          N54   1.317       .  A
N53          C57   1.343       .  A
N54          C55   1.342       .  A
C55          C56   1.387       .  A
C55          H58   1.081       .  S
C56         C694   1.481       .  S
C56          C57   1.385       .  A
C57          H59   1.082       .  S
N60          N61   1.323       .  A
N60          C64   1.339       .  A
N61          C62   1.351       .  A
C62          C63   1.389       .  A
C62          H65   1.082       .  S
C63         C837   1.480       .  S
C63          C64   1.379       .  A
C64          H66   1.082       .  S
N67          N68   1.324       .  A
N67          C71   1.350       .  A
N67         Cu75   2.085       .  S
N68          C69   1.338       .  A
N68         Cu74   2.058       .  S
C69          C70   1.377       .  A
C69          H72   1.082       .  S
C70         C680   1.473       .  S
C70          C71   1.386       .  A
C71          H73   1.082       .  S
Cu74         N77   2.057       .  S
Cu75         N85   2.085       .  S
Cu76         N78   2.059       .  S
Cu76         N84   2.060       .  S
N77          N78   1.319       .  A
N77          C81   1.344       .  A
N78          C79   1.343       .  A
C79          C80   1.382       .  A
C79          H82   1.082       .  S
C80         C669   1.469       .  S
C80          C81   1.381       .  A
C81          H83   1.082       .  S
N84          N85   1.324       .  A
N84          C88   1.339       .  A
N85          C86   1.349       .  A
C86          C87   1.385       .  A
C86          H89   1.082       .  S
C87         C879   1.471       .  S
C87          C88   1.377       .  A
C88          H90   1.082       .  S
C91         C697   1.493       .  S
C91          C92   1.450   1_545  A
C91          C96   1.418   1_655  A
C92         C652   1.553       .  S
C92          C93   1.445       .  A
C93         C638   1.485       .  S
C93          C94   1.422   1_655  A
C94         C666   1.488       .  S
C94          C95   1.401   1_565  A
C95         C610   1.489       .  S
C95          C96   1.397       .  A
C96         C624   1.492       .  S
N97          N98   1.325       .  A
N97         C101   1.352       .  A
N97        Cu105   2.098       .  S
N98          C99   1.338       .  A
N98        Cu104   2.067       .  S
C99         C100   1.379       .  A
C99         H102   1.082       .  S
C100        C809   1.482       .  S
C100        C101   1.390       .  A
C101        H103   1.082       .  S
Cu104       N107   2.065       .  S
Cu105       N115   2.096       .  S
Cu106       N108   2.050       .  S
Cu106       N114   2.049       .  S
N107        N108   1.314       .  A
N107        C111   1.342       .  A
N108        C109   1.342       .  A
C109        C110   1.392       .  A
C109        H112   1.076       .  S
C110        C655   1.496       .  S
C110        C111   1.394       .  A
C111        H113   1.081       .  S
N114        N115   1.322       .  A
N114        C118   1.334       .  A
N115        C116   1.354       .  A
C116        C117   1.393       .  A
C116        H119   1.081       .  S
C117        C599   1.482       .  S
C117        C118   1.377       .  A
C118        H120   1.082       .  S
N121        N122   1.324       .  A
N121        C125   1.352       .  A
N121       Cu129   2.094       .  S
N122        C123   1.339       .  A
N122       Cu128   2.063       .  S
C123        C124   1.378       .  A
C123        H126   1.082       .  S
C124        C582   1.477       .  S
C124        C125   1.388       .  A
C125        H127   1.082       .  S
Cu128       N131   2.063       .  S
Cu129       N139   2.094       .  S
Cu130       N132   2.063       .  S
Cu130       N138   2.064       .  S
N131        N132   1.317       .  A
N131        C135   1.343       .  A
N132        C133   1.345       .  A
C133        C134   1.388       .  A
C133        H136   1.081       .  S
C134        C627   1.485       .  S
C134        C135   1.387       .  A
C135        H137   1.082       .  S
N138        N139   1.324       .  A
N138        C142   1.338       .  A
N139        C140   1.351       .  A
C140        C141   1.390       .  A
C140        H143   1.082       .  S
C141        C736   1.481       .  S
C141        C142   1.378       .  A
C142        H144   1.082       .  S
N145        N146   1.326       .  A
N145        C149   1.351       .  A
N145       Cu153   2.097       .  S
N146        C147   1.341       .  A
N146       Cu152   2.069       .  S
C147        C148   1.375       .  A
C147        H150   1.082       .  S
C148        C778   1.471       .  S
C148        C149   1.385       .  A
C149        H151   1.082       .  S
Cu152       N155   2.067       .  S
Cu153       N163   2.096       .  S
Cu154       N156   2.054       .  S
Cu154       N162   2.054       .  S
N155        N156   1.318       .  A
N155        C159   1.347       .  A
N156        C157   1.341       .  A
C157        C158   1.383       .  A
C157        H160   1.081       .  S
C158        C613   1.478       .  S
C158        C159   1.387       .  A
C159        H161   1.082       .  S
N162        N163   1.322       .  A
N162        C166   1.337       .  A
N163        C164   1.352       .  A
C164        C165   1.391       .  A
C164        H167   1.082       .  S
C165        C571   1.483       .  S
C165        C166   1.379       .  A
C166        H168   1.082       .  S
N169        N170   1.326       .  A
N169        C173   1.351       .  A
N169       Cu177   2.098       .  S
N170        C171   1.342       .  A
N170       Cu176   2.073       .  S
C171        C172   1.376       .  A
C171        H174   1.082       .  S
C172        C554   1.474       .  S
C172        C173   1.386       .  A
C173        H175   1.082       .  S
Cu176       N179   2.072       .  S
Cu177       N187   2.097       .  S
Cu178       N180   2.054       .  S
Cu178       N186   2.054       .  S
N179        N180   1.319       .  A
N179        C183   1.345       .  A
N180        C181   1.344       .  A
C181        C182   1.381       .  A
C181        H184   1.082       .  S
C182        C641   1.474       .  S
C182        C183   1.386       .  A
C183        H185   1.082       .  S
N186        N187   1.322       .  A
N186        C190   1.336       .  A
N187        C188   1.353       .  A
C188        C189   1.392       .  A
C188        H191   1.082       .  S
C189        C722   1.483       .  S
C189        C190   1.378       .  A
C190        H192   1.082       .  S
N193        N194   1.324       .  A
N193        C197   1.348       .  A
N193       Cu201   2.081       .  S
N194        C195   1.340       .  A
N194       Cu200   2.065       .  S
C195        C196   1.379       .  A
C195        H198   1.082       .  S
C196        C848   1.473       .  S
C196        C197   1.384       .  A
C197        H199   1.082       .  S
Cu200       N203   2.064       .  S
Cu201       N211   2.080       .  S
Cu202       N204   2.066       .  S
Cu202       N210   2.066       .  S
N203        N204   1.318       .  A
N203        C207   1.345       .  A
N204        C205   1.342       .  A
C205        C206   1.387       .  A
C205        H208   1.081       .  S
C206        C529   1.484       .  S
C206        C207   1.387       .  A
C207        H209   1.082       .  S
N210        N211   1.323       .  A
N210        C214   1.341       .  A
N211        C212   1.349       .  A
C212        C213   1.384       .  A
C212        H215   1.082       .  S
C213        C543   1.473       .  S
C213        C214   1.379       .  A
C214        H216   1.082       .  S
N217        N218   1.323       .  A
N217        C221   1.351       .  A
N217       Cu225   2.086       .  S
N218        C219   1.338       .  A
N218       Cu224   2.059       .  S
C219        C220   1.377       .  A
C219        H222   1.082       .  S
C220        C865   1.474       .  S
C220        C221   1.386       .  A
C221        H223   1.082       .  S
Cu224       N227   2.058       .  S
Cu225       N235   2.087       .  S
Cu226       N228   2.083       .  S
Cu226       N234   2.084       .  S
N227        N228   1.318       .  A
N227        C231   1.344       .  A
N228        C229   1.346       .  A
C229        C230   1.389       .  A
C229        H232   1.080       .  S
C230        C498   1.475       .  S
C230        C231   1.383       .  A
C231        H233   1.082       .  S
N234        N235   1.325       .  A
N234        C238   1.343       .  A
N235        C236   1.349       .  A
C236        C237   1.385       .  A
C236        H239   1.082       .  S
C237        C512   1.482       .  S
C237        C238   1.383       .  A
C238        H240   1.082       .  S
C241        C526   1.495       .  S
C241        C242   1.404   1_545  A
C241        C246   1.425   1_655  A
C242        C484   1.493       .  S
C242        C243   1.405       .  A
C243        C470   1.485       .  S
C243        C244   1.421   1_655  A
C244        C501   1.506       .  S
C244        C245   1.446   1_565  A
C245        C442   1.548       .  S
C245        C246   1.446       .  A
C246        C456   1.498       .  S
N247        N248   1.322       .  A
N247        C251   1.352       .  A
N247       Cu255   2.095       .  S
N248        C249   1.336       .  A
N248       Cu254   2.047       .  S
C249        C250   1.375       .  A
C249        H252   1.082       .  S
C250        C792   1.475       .  S
C250        C251   1.389       .  A
C251        H253   1.082       .  S
Cu254       N257   2.048       .  S
Cu255       N265   2.096       .  S
Cu256       N258   2.063       .  S
Cu256       N264   2.065       .  S
N257        N258   1.316       .  A
N257        C261   1.340       .  A
N258        C259   1.344       .  A
C259        C260   1.390       .  A
C259        H262   1.082       .  S
C260        C445   1.484       .  S
C260        C261   1.385       .  A
C261        H263   1.081       .  S
N264        N265   1.325       .  A
N264        C268   1.339       .  A
N265        C266   1.351       .  A
C266        C267   1.389       .  A
C266        H269   1.082       .  S
C267        C431   1.480       .  S
C267        C268   1.378       .  A
C268        H270   1.082       .  S
N271        N272   1.325       .  A
N271        C275   1.351       .  A
N271       Cu279   2.097       .  S
N272        C273   1.341       .  A
N272       Cu278   2.068       .  S
C273        C274   1.375       .  A
C273        H276   1.082       .  S
C274        C414   1.473       .  S
C274        C275   1.386       .  A
C275        H277   1.082       .  S
Cu278       N281   2.067       .  S
Cu279       N289   2.096       .  S
Cu280       N282   2.066       .  S
Cu280       N288   2.066       .  S
N281        N282   1.317       .  A
N281        C285   1.346       .  A
N282        C283   1.342       .  A
C283        C284   1.390       .  A
C283        H286   1.081       .  S
C284        C459   1.491       .  S
C284        C285   1.390       .  A
C285        H287   1.081       .  S
N288        N289   1.323       .  A
N288        C292   1.340       .  A
N289        C290   1.352       .  A
C290        C291   1.389       .  A
C290        H293   1.082       .  S
C291        C753   1.483       .  S
C291        C292   1.380       .  A
C292        H294   1.082       .  S
N295        N296   1.324       .  A
N295        C299   1.352       .  A
N295       Cu303   2.094       .  S
N296        C297   1.339       .  A
N296       Cu302   2.065       .  S
C297        C298   1.378       .  A
C297        H300   1.082       .  S
C298        C820   1.477       .  S
C298        C299   1.387       .  A
C299        H301   1.082       .  S
Cu302       N305   2.065       .  S
Cu303       N313   2.094       .  S
Cu304       N306   2.063       .  S
Cu304       N312   2.064       .  S
N305        N306   1.318       .  A
N305        C309   1.343       .  A
N306        C307   1.346       .  A
C307        C308   1.386       .  A
C307        H310   1.082       .  S
C308        C487   1.478       .  S
C308        C309   1.385       .  A
C309        H311   1.082       .  S
N312        N313   1.324       .  A
N312        C316   1.337       .  A
N313        C314   1.352       .  A
C314        C315   1.390       .  A
C314        H317   1.082       .  S
C315        C400   1.481       .  S
C315        C316   1.379       .  A
C316        H318   1.082       .  S
N319        N320   1.325       .  A
N319        C323   1.352       .  A
N319       Cu327   2.098       .  S
N320        C321   1.337       .  A
N320       Cu326   2.058       .  S
C321        C322   1.375       .  A
C321        H324   1.082       .  S
C322        C386   1.475       .  S
C322        C323   1.388       .  A
C323        H325   1.082       .  S
Cu326       N329   2.057       .  S
Cu327       N337   2.097       .  S
Cu328       N330   2.061       .  S
Cu328       N336   2.061       .  S
N329        N330   1.317       .  A
N329        C333   1.345       .  A
N330        C331   1.342       .  A
C331        C332   1.385       .  A
C331        H334   1.082       .  S
C332        C473   1.476       .  S
C332        C333   1.384       .  A
C333        H335   1.082       .  S
N336        N337   1.323       .  A
N336        C340   1.338       .  A
N337        C338   1.352       .  A
C338        C339   1.391       .  A
C338        H341   1.082       .  S
C339        C764   1.484       .  S
C339        C340   1.379       .  A
C340        H342   1.082       .  S
O343       Cu351   2.011       .  S
O343        C353   1.277       .  A
O344       Cu351   2.009   1_545  S
O344        C354   1.279       .  A
O345       Cu351   2.013       .  S
O345        C355   1.277       .  A
O346       Cu351   2.007   1_545  S
O346        C356   1.278       .  A
O347       Cu352   2.005       .  S
O347        C356   1.277       .  A
O348       Cu352   2.001   1_565  S
O348        C355   1.278       .  A
O349       Cu352   2.010       .  S
O349        C354   1.277       .  A
O350       Cu352   2.006   1_565  S
O350        C353   1.278       .  A
Cu351      Cu352   2.373   1_565  S
C353        C403   1.476       .  S
C354        C568   1.480       .  S
C355        C596   1.480       .  S
C356        C428   1.477       .  S
O357       Cu365   2.002   1_565  S
O357        C367   1.278       .  A
O358       Cu365   2.014   1_556  S
O358        C368   1.278       .  A
O359       Cu365   1.997   1_566  S
O359        C369   1.278       .  A
O360       Cu365   1.997       .  S
O360        C370   1.275       .  A
O361       Cu366   2.016   1_544  S
O361        C370   1.279       .  A
O362       Cu366   2.023       .  S
O362        C369   1.279       .  A
O363       Cu366   1.996   1_545  S
O363        C368   1.276       .  A
O364       Cu366   2.004   1_554  S
O364        C367   1.276       .  A
Cu365      Cu366   2.375   1_544  S
C367        C683   1.475       .  S
C368        C540   1.468       .  S
C369        C515   1.485       .  S
C370        C711   1.469       .  S
O371       Cu379   2.005       .  S
O371        C381   1.278       .  A
O372       Cu379   2.003       .  S
O372        C382   1.276       .  A
O373       Cu379   2.016       .  S
O373        C383   1.278       .  A
O374       Cu379   2.012       .  S
O374        C384   1.277       .  A
O375       Cu380   2.013       .  S
O375        C384   1.278       .  A
O376       Cu380   2.008       .  S
O376        C383   1.276       .  A
O377       Cu380   2.013       .  S
O377        C382   1.279       .  A
O378       Cu380   2.013       .  S
O378        C381   1.277       .  A
Cu379      Cu380   2.377       .  S
C381        C585   1.476       .  S
C382        C389   1.473       .  S
C383        C417   1.470       .  S
C384        C557   1.471       .  S
C385        C386   1.402       .  A
C385        C390   1.405       .  A
C385        H392   1.084       .  S
C386        C387   1.416       .  A
C387        C388   1.397       .  A
C387        N394   1.440       .  S
C388        C389   1.400       .  A
C388        H393   1.085       .  S
C389        C390   1.420       .  A
C390        N391   1.439       .  S
N391        H395   1.046       .  S
N391        H396   1.042       .  S
N394        H397   1.043       .  S
N394        H398   1.046       .  S
C399        C400   1.403       .  A
C399        C404   1.398       .  A
C399        H406   1.084       .  S
C400        C401   1.420       .  A
C401        C402   1.407       .  A
C401        N408   1.437       .  S
C402        C403   1.404       .  A
C402        H407   1.084       .  S
C403        C404   1.409       .  A
C404        N405   1.437       .  S
N405        H409   1.046       .  S
N405        H410   1.045       .  S
N408        H411   1.041       .  S
N408        H412   1.045       .  S
C413        C414   1.403       .  A
C413        C418   1.407       .  A
C413        H420   1.084       .  S
C414        C415   1.416       .  A
C415        C416   1.402       .  A
C415        N422   1.439       .  S
C416        C417   1.400       .  A
C416        H421   1.084       .  S
C417        C418   1.408       .  A
C418        N419   1.438       .  S
N419        H423   1.046       .  S
N419        H424   1.046       .  S
N422        H425   1.044       .  S
N422        H426   1.046       .  S
C427        C428   1.404       .  A
C427        C432   1.404       .  A
C427        H434   1.084       .  S
C428        C429   1.410       .  A
C429        C430   1.402       .  A
C429        N436   1.439       .  S
C430        C431   1.405       .  A
C430        H435   1.084       .  S
C431        C432   1.419       .  A
C432        N433   1.438       .  S
N433        H437   1.045       .  S
N433        H438   1.040       .  S
N436        H439   1.045   1_545  S
N436        H440   1.046   1_545  S
C441        C442   1.412       .  A
C441        C446   1.402       .  A
C441        H448   1.068   1_545  S
C442        C443   1.418       .  A
C443        C444   1.399       .  A
C443        N450   1.432       .  S
C444        C445   1.403       .  A
C444        H449   1.082       .  S
C445        C446   1.413       .  A
C446        N447   1.439       .  S
N447        H451   1.046   1_545  S
N447        H452   1.043       .  S
N450        H453   1.040       .  S
N450        H454   1.045       .  S
C455        C456   1.405       .  A
C455        C460   1.406       .  A
C455        H462   1.084       .  S
C456        C457   1.423       .  A
C457        C458   1.398       .  A
C457        N464   1.438       .  S
C458        C459   1.403       .  A
C458        H463   1.082       .  S
C459        C460   1.412       .  A
C460        N461   1.431       .  S
N461        H465   1.046       .  S
N461        H466   1.046       .  S
N464        H467   1.043       .  S
N464        H468   1.045   1_455  S
C469        C470   1.401       .  A
C469        C474   1.395       .  A
C469        H476   1.083       .  S
C470        C471   1.416       .  A
C471        C472   1.406       .  A
C471        N478   1.437       .  S
C472        C473   1.406       .  A
C472        H477   1.084       .  S
C473        C474   1.405       .  A
C474        N475   1.432       .  S
N475        H479   1.046       .  S
N475        H480   1.046       .  S
N478        H481   1.044       .  S
N478        H482   1.046       .  S
C483        C484   1.404       .  A
C483        C488   1.404       .  A
C483        H490   1.084       .  S
C484        C485   1.418       .  A
C485        C486   1.399       .  A
C485        N492   1.438       .  S
C486        C487   1.401       .  A
C486        H491   1.084       .  S
C487        C488   1.408       .  A
C488        N489   1.432       .  S
N489        H493   1.046       .  S
N489        H494   1.046       .  S
N492        H495   1.043       .  S
N492        H496   1.045       .  S
C497        C498   1.396       .  A
C497        C502   1.399       .  A
C497        H504   1.084       .  S
C498        C499   1.407       .  A
C499        C500   1.412       .  A
C499        N506   1.437       .  S
C500        C501   1.412       .  A
C500        H505   1.084   1_565  S
C501        C502   1.417       .  A
C502        N503   1.428       .  S
N503        H507   1.046       .  S
N503        H508   1.046       .  S
N506        H509   1.046   1_565  S
N506        H510   1.046   1_565  S
C511        C512   1.405       .  A
C511        C516   1.405       .  A
C511        H518   1.084       .  S
C512        C513   1.410       .  A
C513        C514   1.402       .  A
C513        N520   1.438       .  S
C514        C515   1.405       .  A
C514        H519   1.084       .  S
C515        C516   1.417       .  A
C516        N517   1.432       .  S
N517        H521   1.045       .  S
N517        H522   1.046       .  S
N520        H523   1.046       .  S
N520        H524   1.046       .  S
C525        C526   1.401       .  A
C525        C530   1.396       .  A
C525        H532   1.082       .  S
C526        C527   1.417       .  A
C527        C528   1.405       .  A
C527        N534   1.438       .  S
C528        C529   1.407       .  A
C528        H533   1.083       .  S
C529        C530   1.409       .  A
C530        N531   1.432       .  S
N531        H535   1.046       .  S
N531        H536   1.046       .  S
N534        H537   1.043       .  S
N534        H538   1.045   1_655  S
C539        C540   1.400       .  A
C539        C544   1.397       .  A
C539        H546   1.084       .  S
C540        C541   1.414       .  A
C541        C542   1.405       .  A
C541        N548   1.438       .  S
C542        C543   1.404       .  A
C542        H547   1.084       .  S
C543        C544   1.416       .  A
C544        N545   1.440       .  S
N545        H549   1.046       .  S
N545        H550   1.043       .  S
N548        H551   1.043       .  S
N548        H552   1.046       .  S
C553        C554   1.403       .  A
C553        C558   1.403       .  A
C553        H560   1.084       .  S
C554        C555   1.415       .  A
C555        C556   1.402       .  A
C555        N562   1.439       .  S
C556        C557   1.402       .  A
C556        H561   1.083       .  S
C557        C558   1.414       .  A
C558        N559   1.439       .  S
N559        H563   1.045       .  S
N559        H564   1.044       .  S
N562        H565   1.043       .  S
N562        H566   1.046       .  S
C567        C568   1.400       .  A
C567        C572   1.401       .  A
C567        H574   1.084       .  S
C568        C569   1.415       .  A
C569        C570   1.411       .  A
C569        N576   1.438       .  S
C570        C571   1.404       .  A
C570        H575   1.083       .  S
C571        C572   1.413       .  A
C572        N573   1.438       .  S
N573        H577   1.046       .  S
N573        H578   1.046       .  S
N576        H579   1.046       .  S
N576        H580   1.046       .  S
C581        C582   1.403       .  A
C581        C586   1.410       .  A
C581        H588   1.084       .  S
C582        C583   1.412       .  A
C583        C584   1.402       .  A
C583        N590   1.439       .  S
C584        C585   1.400       .  A
C584        H589   1.084       .  S
C585        C586   1.412       .  A
C586        N587   1.437       .  S
N587        H591   1.046       .  S
N587        H592   1.045       .  S
N590        H593   1.043       .  S
N590        H594   1.046       .  S
C595        C596   1.407       .  A
C595        C600   1.412       .  A
C595        H602   1.084       .  S
C596        C597   1.412       .  A
C597        C598   1.397       .  A
C597        N604   1.438       .  S
C598        C599   1.403       .  A
C598        H603   1.084       .  S
C599        C600   1.411       .  A
C600        N601   1.436       .  S
N601        H605   1.046       .  S
N601        H606   1.045       .  S
N604        H607   1.045       .  S
N604        H608   1.046       .  S
C609        C610   1.399       .  A
C609        C614   1.394       .  A
C609        H616   1.082       .  S
C610        C611   1.416       .  A
C611        C612   1.404       .  A
C611        N618   1.438       .  S
C612        C613   1.404       .  A
C612        H617   1.084       .  S
C613        C614   1.415       .  A
C614        N615   1.432       .  S
N615        H619   1.046       .  S
N615        H620   1.042       .  S
N618        H621   1.043       .  S
N618        H622   1.045       .  S
C623        C624   1.401       .  A
C623        C628   1.404       .  A
C623        H630   1.084       .  S
C624        C625   1.417       .  A
C625        C626   1.399       .  A
C625        N632   1.439       .  S
C626        C627   1.404       .  A
C626        H631   1.083       .  S
C627        C628   1.412       .  A
C628        N629   1.431       .  S
N629        H633   1.046       .  S
N629        H634   1.046       .  S
N632        H635   1.043       .  S
N632        H636   1.045       .  S
C637        C638   1.406       .  A
C637        C642   1.400       .  A
C637        H644   1.084       .  S
C638        C639   1.418       .  A
C639        C640   1.402       .  A
C639        N646   1.438       .  S
C640        C641   1.403       .  A
C640        H645   1.084       .  S
C641        C642   1.416       .  A
C642        N643   1.439       .  S
N643        H647   1.046       .  S
N643        H648   1.043       .  S
N646        H649   1.042       .  S
N646        H650   1.046       .  S
C651        C652   1.408       .  A
C651        C656   1.400       .  A
C651        H658   1.074   1_565  S
C652        C653   1.419       .  A
C653        C654   1.404       .  A
C653        N660   1.430       .  S
C654        C655   1.403       .  A
C654        H659   1.083       .  S
C655        C656   1.418       .  A
C656        N657   1.430       .  S
N657        H661   1.043       .  S
N657        H662   1.045       .  S
N660        H663   1.046       .  S
N660        H664   1.046       .  S
C665        C666   1.402       .  A
C665        C670   1.395       .  A
C665        H672   1.084       .  S
C666        C667   1.407       .  A
C667        C668   1.402       .  A
C667        N674   1.431       .  S
C668        C669   1.402       .  A
C668        H673   1.084       .  S
C669        C670   1.411       .  A
C670        N671   1.432       .  S
N671        H675   1.046       .  S
N671        H676   1.044       .  S
N674        H677   1.045       .  S
N674        H678   1.045       .  S
C679        C680   1.402       .  A
C679        C684   1.401       .  A
C679        H686   1.084       .  S
C680        C681   1.416       .  A
C681        C682   1.396       .  A
C681        N688   1.438       .  S
C682        C683   1.401       .  A
C682        H687   1.084       .  S
C683        C684   1.416       .  A
C684        N685   1.432       .  S
N685        H689   1.045       .  S
N685        H690   1.046       .  S
N688        H691   1.043       .  S
N688        H692   1.045       .  S
C693        C694   1.406       .  A
C693        C698   1.402       .  A
C693        H700   1.083       .  S
C694        C695   1.409       .  A
C695        C696   1.396       .  A
C695        N702   1.432       .  S
C696        C697   1.404       .  A
C696        H701   1.082       .  S
C697        C698   1.416       .  A
C698        N699   1.437       .  S
N699        H703   1.046   1_545  S
N699        H704   1.042   1_545  S
N702        H705   1.046       .  S
N702        H706   1.046       .  S
C707        C708   1.402       .  A
C707        C712   1.404       .  A
C707        H714   1.084       .  S
C708        C709   1.417       .  A
C709        C710   1.398       .  A
C709        N716   1.440       .  S
C710        C711   1.399       .  A
C710        H715   1.084       .  S
C711        C712   1.417       .  A
C712        N713   1.439       .  S
N713        H717   1.046       .  S
N713        H718   1.043       .  S
N716        H719   1.043       .  S
N716        H720   1.046       .  S
C721        C722   1.405       .  A
C721        C726   1.399       .  A
C721        H728   1.083       .  S
C722        C723   1.414       .  A
C723        C724   1.412       .  A
C723        N730   1.437       .  S
C724        C725   1.404       .  A
C724        H729   1.084       .  S
C725        C726   1.407       .  A
C726        N727   1.439       .  S
N727        H731   1.046       .  S
N727        H732   1.046       .  S
N730        H733   1.046       .  S
N730        H734   1.046       .  S
C735        C736   1.405       .  A
C735        C740   1.402       .  A
C735        H742   1.084       .  S
C736        C737   1.418       .  A
C737        C738   1.404       .  A
C737        N744   1.438       .  S
C738        C739   1.406       .  A
C738        H743   1.084       .  S
C739        C740   1.411       .  A
C740        N741   1.438       .  S
N741        H745   1.046   1_455  S
N741        H746   1.045   1_455  S
N744        H747   1.041       .  S
N744        H748   1.045       .  S
C749        C750   1.401       .  A
C749        C754   1.396       .  A
C749        H756   1.084       .  S
C750        C751   1.414       .  A
C751        C752   1.412       .  A
C751        N758   1.437       .  S
C752        C753   1.405       .  A
C752        H757   1.084       .  S
C753        C754   1.417       .  A
C754        N755   1.437       .  S
N755        H759   1.045       .  S
N755        H760   1.043       .  S
N758        H761   1.045       .  S
N758        H762   1.046       .  S
C763        C764   1.403       .  A
C763        C768   1.401       .  A
C763        H770   1.083       .  S
C764        C765   1.411       .  A
C765        C766   1.411       .  A
C765        N772   1.437       .  S
C766        C767   1.408       .  A
C766        H771   1.083       .  S
C767        C768   1.413       .  A
C768        N769   1.439   1_655  S
N769        H773   1.046       .  S
N769        H774   1.046       .  S
N772        H775   1.046       .  S
N772        H776   1.046       .  S
C777        C778   1.402       .  A
C777        C782   1.402       .  A
C777        H784   1.084       .  S
C778        C779   1.415       .  A
C779        C780   1.401       .  A
C779        N786   1.439       .  S
C780        C781   1.401       .  A
C780        H785   1.085       .  S
C781        C782   1.414       .  A
C782        N783   1.438       .  S
N783        H787   1.045       .  S
N783        H788   1.044       .  S
N786        H789   1.043       .  S
N786        H790   1.046       .  S
C791        C792   1.403       .  A
C791        C796   1.404       .  A
C791        H798   1.084       .  S
C792        C793   1.415       .  A
C793        C794   1.394       .  A
C793        N800   1.434       .  S
C794        C795   1.401       .  A
C794        H799   1.085       .  S
C795        C796   1.415       .  A
C796        N797   1.432       .  S
N797        H801   1.045       .  S
N797        H802   1.046       .  S
N800        H803   1.046       .  S
N800        H804   1.043       .  S
C805        C806   1.407       .  A
C805        C810   1.410       .  A
C805        H812   1.083       .  S
C806        C807   1.411       .  A
C807        C808   1.401       .  A
C807        N814   1.438       .  S
C808        C809   1.404       .  A
C808        H813   1.084       .  S
C809        C810   1.411       .  A
C810        N811   1.437       .  S
N811        H815   1.046       .  S
N811        H816   1.046       .  S
N814        H817   1.046       .  S
N814        H818   1.046       .  S
C819        C820   1.405       .  A
C819        C824   1.412       .  A
C819        H826   1.084       .  S
C820        C821   1.416       .  A
C821        C822   1.396       .  A
C821        N828   1.438       .  S
C822        C823   1.399       .  A
C822        H827   1.085       .  S
C823        C824   1.411       .  A
C824        N825   1.437       .  S
N825        H829   1.046       .  S
N825        H830   1.045       .  S
N828        H831   1.043       .  S
N828        H832   1.045       .  S
C833        C834   1.404       .  A
C833        C838   1.410       .  A
C833        H840   1.084       .  S
C834        C835   1.408       .  A
C835        C836   1.401       .  A
C835        N842   1.439       .  S
C836        C837   1.404       .  A
C836        H841   1.084       .  S
C837        C838   1.413       .  A
C838        N839   1.437       .  S
N839        H843   1.046       .  S
N839        H844   1.046       .  S
N842        H845   1.046       .  S
N842        H846   1.046   1_655  S
C847        C848   1.402       .  A
C847        C852   1.403       .  A
C847        H854   1.084       .  S
C848        C849   1.415       .  A
C849        C850   1.397       .  A
C849        N856   1.440       .  S
C850        C851   1.401       .  A
C850        H855   1.085       .  S
C851        C852   1.419       .  A
C852        N853   1.440       .  S
N853        H857   1.046       .  S
N853        H858   1.041       .  S
N856        H859   1.043       .  S
N856        H860   1.046       .  S
C861        C862   1.398       .  A
C861        C866   1.396       .  A
C861        H868   1.085       .  S
C862        C863   1.415       .  A
C863        C864   1.406       .  A
C863        N870   1.438       .  S
C864        C865   1.404       .  A
C864        H869   1.084       .  S
C865        C866   1.417       .  A
C866        N867   1.440       .  S
N867        H871   1.046       .  S
N867        H872   1.043       .  S
N870        H873   1.044       .  S
N870        H874   1.046       .  S
C875        C876   1.401       .  A
C875        C880   1.397       .  A
C875        H882   1.085       .  S
C876        C877   1.420       .  A
C877        C878   1.403       .  A
C877        N884   1.440       .  S
C878        C879   1.401       .  A
C878        H883   1.084       .  S
C879        C880   1.415       .  A
C880        N881   1.440       .  S
N881        H885   1.046       .  S
N881        H886   1.043       .  S
N884        H887   1.041       .  S
N884        H888   1.046       .  S
