geometry optimzed in LAMMPS
_audit_creation_date              2020-11-30 
_audit_creation_method            'lammps2cif' 
_symmetry_space_group_name_H-M    'P1' 
_symmetry_Int_Tables_number       1 
_symmetry_cell_setting            triclinic 
loop_ 
_symmetry_equiv_pos_as_xyz 
  x,y,z 
_cell_length_a                    34.39644907 
_cell_length_b                    34.38628505116896 
_cell_length_c                    33.494988082713455 
_cell_angle_alpha                 91.02542443299545 
_cell_angle_beta                  92.74191202579144 
_cell_angle_gamma                 89.93757206620995 
loop_ 
_atom_site_label 
_atom_site_type_symbol 
_atom_site_fract_x 
_atom_site_fract_y 
_atom_site_fract_z 
_atom_site_charge 
C1          C  0.19095387  0.51646305  0.17559580     0.80100
N2          N  0.17001761  0.51652723  0.20898818    -0.78200
C3          C  0.12643673  0.01024992  0.20695414     0.82500
N4          N  0.10778615  0.01551373  0.17076277    -0.78200
C5          C  0.12828453  0.01530702  0.13707212     0.82600
N6          N  0.17201210  0.52024337  0.13908711    -0.79900
C7          C  0.29986177  0.50359271  0.15308158     0.80100
N8          N  0.32047232  0.50192812  0.11951575    -0.78200
C9          C  0.35485358  0.00885260  0.12263905     0.82500
N10         N  0.37391062  0.00497516  0.15866732    -0.78200
C11         C  0.35363547  0.00206887  0.19216482     0.82600
N12         N  0.31877664  0.49895325  0.18945157    -0.79900
C13         C  0.49270654  0.19908332  0.17456230     0.80100
N14         N  0.49330582  0.17610383  0.20710749    -0.78200
C15         C  0.49328657  0.13683792  0.20264607     0.82500
N16         N  0.49257963  0.12035333  0.16554470    -0.78200
C17         C  0.49222423  0.14309804  0.13286476     0.82600
N18         N  0.49213881  0.18244096  0.13733110    -0.79900
C19         C  0.49488024  0.30885879  0.15519349     0.80100
N20         N  0.49684881  0.33121732  0.12241657    -0.78200
C21         C  0.50269147  0.37007655  0.12639983     0.82500
N22         N  0.50612749  0.38691630  0.16334221    -0.78200
C23         C  0.50336895  0.36486099  0.19629983     0.82600
N24         N  0.49771091  0.32585906  0.19223986    -0.79900
C25         C  0.50362881  0.39377229  0.09081969     0.42300
N26         N  0.48487088  0.42355887  0.03796547     0.01200
C27         C  0.08865833  0.04366907  0.26389979    -0.06700
H28         H  0.09380040  0.08269013  0.08763659     0.06700
C29         C  0.45625084  0.10980624  0.07131345    -0.07000
Co30       Co  0.05231637  0.46036248  0.33150666     0.74200
N31         N  0.07227304  0.03869069  0.04506247    -0.26200
Co32       Co  0.03780736  0.05619648  0.33753938     0.74100
C33         C  0.49080236  0.12499937  0.09302371     0.42400
N34         N  0.41080737  0.02485862  0.03843340     0.00800
N35         N  0.00587240  0.09479710  0.04279007     0.00900
N36         N  0.09965271  0.48649639  0.26109619    -0.47100
H37         H  0.07217573  0.41478325  0.08453984     0.06700
N38         N  0.07689173  0.50444541  0.04636837     0.01200
N39         N  0.00412876  0.08382211  0.29289978     0.00900
C40         C  0.49186428  0.11239545  0.23764537     0.42600
N41         N  0.41693081  0.47625706  0.03492471    -0.25700
C42         C  0.04178676  0.40641336  0.25539006    -0.06600
N43         N  0.47215939  0.40220381  0.06712907    -0.46800
N44         N  0.01728139  0.10482401  0.26362258    -0.47000
C45         C  0.50436147  0.38349885  0.23589556     0.42300
N46         N  0.07667284  0.49685405  0.29013664     0.01200
N47         N  0.41617516  0.46963521  0.28338962    -0.25700
N48         N  0.02608293  0.43393440  0.04321729    -0.26200
N49         N  0.41123898  0.01421885  0.28192817     0.00800
H50         H  0.39621874  0.42522388  0.24052194     0.06700
H51         H  0.42686666  0.10208443  0.24647493     0.06800
N52         N  0.07015973  0.02848354  0.29433128    -0.26200
N53         N  0.46996600  0.08825157  0.04133370    -0.25800
N54         N  0.48442965  0.41565709  0.28622546     0.01200
C55         C  0.10788311  0.01799112  0.09771925     0.42600
C56         C  0.39881929  0.46112824  0.06572745    -0.07100
N57         N  0.47081724  0.07677439  0.28637565    -0.25800
H58         H  0.42591162  0.11408116  0.07727613     0.06700
N59         N  0.10105476  0.49340166  0.07604775    -0.47100
H60         H  0.39830043  0.43081103  0.07352859     0.06700
C61         C  0.37471728  0.99855237  0.23080032     0.42400
C62         C  0.04174287  0.41495310  0.07478246    -0.06600
Co63       Co  0.44964178  0.44145152  0.32855795     0.73800
N64         N  0.38945919  0.03896205  0.06726286    -0.46800
C65         C  0.10463721  0.01019543  0.24326699     0.42700
N66         N  0.47230374  0.39373383  0.25518735    -0.46800
Co67       Co  0.44062727  0.04560738  0.32769261     0.73900
C68         C  0.45719577  0.09771021  0.25537610    -0.07100
C69         C  0.09159759  0.05244620  0.07823851    -0.06700
N70         N  0.02599821  0.42585484  0.28572802    -0.26200
N71         N  0.01875201  0.11479008  0.07502171    -0.46900
H72         H  0.09035120  0.07413965  0.25694195     0.06700
C73         C  0.39722140  0.45543664  0.25013619    -0.07100
Cl74       Cl  0.49282086  0.99708317  0.32856498    -0.50100
C75         C  0.37665885  0.00772002  0.08654404     0.42500
H76         H  0.07228036  0.40615363  0.24883794     0.06700
N77         N  0.38928071  0.02901999  0.25241428    -0.46800
C78         C  0.49315083  0.24174799  0.18040362    -0.16600
C79         C  0.49115089  0.26633157  0.14970210    -0.31000
H80         H  0.49604968  0.25313648  0.21090843     0.12400
H81         H  0.98991756  0.25584657  0.11992541     0.13000
C82         C  0.23387381  0.51124064  0.18001870    -0.16600
C83         C  0.25713761  0.51012476  0.14885624    -0.31800
H84         H  0.24225403  0.99763044  0.20985244     0.12400
H85         H  0.24440229  0.51343208  0.11880974     0.13000
C86         C  0.18718039  0.50148581  0.50862728     0.80100
N87         N  0.16657420  0.50251067  0.54214725    -0.78200
C88         C  0.12874648  0.99694687  0.54056584     0.82500
N89         N  0.10991743  0.00139016  0.50447386    -0.78200
C90         C  0.13030631  0.00283305  0.47091831     0.82600
N91         N  0.16833812  0.50620640  0.47232521    -0.79900
C92         C  0.29568960  0.49265263  0.48599390     0.80100
N93         N  0.31668724  0.49091904  0.45269315    -0.78200
C94         C  0.35718300  0.99768857  0.45464491     0.82500
N95         N  0.37680497  0.99832869  0.49079239    -0.78200
C96         C  0.35699332  0.99917241  0.52491387     0.82600
N97         N  0.31450310  0.49183355  0.52273484    -0.79900
C98         C  0.49579829  0.19436200  0.49077791     0.80100
N99         N  0.49447271  0.17945279  0.52835813    -0.78200
C100        C  0.49324982  0.14003727  0.53314132     0.82500
N101        N  0.49310711  0.11606213  0.50054663    -0.78200
C102        C  0.49467361  0.13104378  0.46354404     0.82600
N103        N  0.49595873  0.16988322  0.45878865    -0.79900
C104        C  0.49865343  0.30605173  0.50372609     0.80100
N105        N  0.49987159  0.32095166  0.46614243    -0.78200
C106        C  0.50367212  0.36019820  0.46149616     0.82500
N107        N  0.50629124  0.38403342  0.49421367    -0.78200
C108        C  0.50474987  0.36906720  0.53122096     0.82600
N109        N  0.50066397  0.33042246  0.53582181    -0.79900
C110        C  0.50445497  0.37769357  0.42168902     0.42300
N111        N  0.48426622  0.41413791  0.37324944     0.01200
C112        C  0.08903841  0.03109748  0.59487355    -0.06700
H113        H  0.09427722  0.07039515  0.42347509     0.06700
C114        C  0.45805068  0.09330738  0.40596130    -0.07000
Co115      Co  0.05134773  0.45155074  0.66709184     0.74200
N116        N  0.07058564  0.02667044  0.38188085    -0.26200
Co117      Co  0.03670028  0.04557907  0.66647736     0.74100
C118        C  0.49298345  0.10581583  0.42849021     0.42400
N119        N  0.41167109  0.01334558  0.36904367     0.00800
N120        N  0.00383712  0.08292737  0.38011102     0.00900
N121        N  0.09808876  0.47626041  0.59617385    -0.47100
H122        H  0.07256585  0.40688887  0.41490718     0.06700
N123        N  0.07714626  0.49537779  0.37730631     0.01200
N124        N  0.00295971  0.07234725  0.62165840     0.00900
C125        C  0.49133473  0.12258963  0.57289717     0.42600
N126        N  0.41622424  0.46899116  0.37136530    -0.25700
C127        C  0.04099008  0.39909587  0.58950361    -0.06600
N128        N  0.47232570  0.39013340  0.40078030    -0.46800
N129        N  0.01577028  0.09552626  0.59401156    -0.47000
C130        C  0.50462518  0.39435181  0.56615372     0.42300
N131        N  0.07583876  0.48737355  0.62549098     0.01200
N132        N  0.41485601  0.47197820  0.61566377    -0.25700
N133        N  0.02640610  0.42539451  0.37333730    -0.26200
N134        N  0.41273890  0.01717195  0.61588764     0.00800
H135        H  0.39310523  0.42543801  0.57644825     0.06700
H136        H  0.42643534  0.10976524  0.58067939     0.06800
N137        N  0.06900114  0.01658564  0.62444975    -0.26200
N138        N  0.47127373  0.07507387  0.37369784    -0.25800
N139        N  0.48483159  0.42177951  0.61884642     0.01200
C140        C  0.10932395  0.00569285  0.43199079     0.42600
C141        C  0.39665164  0.45375466  0.40106983    -0.07100
N142        N  0.47045578  0.08292991  0.61940833    -0.25800
H143        H  0.42789477  0.09674623  0.41303325     0.06700
N144        N  0.09993688  0.48331066  0.40759342    -0.47100
H145        H  0.39505836  0.42326593  0.40812692     0.06700
C146        C  0.37851994  0.99853291  0.56382805     0.42400
C147        C  0.04217448  0.40688083  0.40522890    -0.06600
Co148      Co  0.44931360  0.44601528  0.66077088     0.73800
N149        N  0.39143979  0.02721025  0.39883685    -0.46800
C150        C  0.10667442  0.99731195  0.57653241     0.42700
N151        N  0.47271617  0.40177347  0.58659996    -0.46800
Co152      Co  0.44091347  0.05101381  0.66134213     0.73900
C153        C  0.45684097  0.10534399  0.58937936    -0.07100
C154        C  0.09143165  0.04020006  0.41415115    -0.06700
N155        N  0.02522487  0.41695394  0.62091271    -0.26200
N156        N  0.01634408  0.10570674  0.41037267    -0.46900
H157        H  0.09137840  0.06151065  0.58759764     0.06700
C158        C  0.39448565  0.45609892  0.58432073    -0.07100
Cl159      Cl  0.49350700  0.00247698  0.66417736    -0.50100
C160        C  0.37838958  0.99600339  0.41792323     0.42500
H161        H  0.07135094  0.39968655  0.58260623     0.06700
N162        N  0.39142955  0.03023041  0.58484199    -0.46800
C163        C  0.49702445  0.23656053  0.48288136    -0.16600
C164        C  0.49571927  0.26393617  0.51152013    -0.31000
H165        H  0.49936957  0.24528690  0.45201225     0.12400
H166        H  0.99299539  0.24889865  0.45298180     0.13000
C167        C  0.22981946  0.49593409  0.51271253    -0.16600
C168        C  0.25282417  0.49624018  0.48142288    -0.31800
H169        H  0.24532157  0.99315797  0.54402897     0.12400
H170        H  0.23998975  0.49947561  0.45144571     0.13000
C171        C  0.18799464  0.50865802  0.84315456     0.80100
N172        N  0.16786061  0.51511159  0.87649106    -0.78200
C173        C  0.12859417  0.01358590  0.87070195     0.82500
N174        N  0.10958931  0.00931534  0.83448020    -0.78200
C175        C  0.12985774  0.00263679  0.80124845     0.82600
N176        N  0.16844869  0.50650450  0.80677968    -0.79900
C177        C  0.29630093  0.49865966  0.81953583     0.80100
N178        N  0.31623240  0.49603214  0.78561303    -0.78200
C179        C  0.35844371  0.00347085  0.78947951     0.82500
N180        N  0.37679397  0.00452669  0.82628011    -0.78200
C181        C  0.35570936  0.00554818  0.85953928     0.82600
N182        N  0.31613777  0.49781339  0.85578617    -0.79900
C183        C  0.49932154  0.19878385  0.83817945     0.80100
N184        N  0.49857183  0.17592398  0.87047824    -0.78200
C185        C  0.49484913  0.13703467  0.86603105     0.82500
N186        N  0.49212587  0.12037151  0.82901704    -0.78200
C187        C  0.49352911  0.14279170  0.79618703     0.82600
N188        N  0.49695559  0.18221540  0.80069677    -0.79900
C189        C  0.49943804  0.30930165  0.82326977     0.80100
N190        N  0.49948200  0.33197237  0.79078002    -0.78200
C191        C  0.50350568  0.37085450  0.79493777     0.82500
N192        N  0.50698521  0.38771750  0.83176485    -0.78200
C193        C  0.50612567  0.36554179  0.86475462     0.82600
N194        N  0.50236039  0.32611076  0.86062412    -0.79900
C195        C  0.50350464  0.39424914  0.75960575     0.42300
N196        N  0.48427069  0.42173400  0.70590492     0.01200
C197        C  0.09113509  0.05183127  0.92589219    -0.06700
H198        H  0.09297662  0.06450351  0.74925129     0.06700
C199        C  0.45688020  0.10649376  0.73609079    -0.07000
Co200      Co  0.05206467  0.46844985  0.00135203     0.74200
N201        N  0.06973110  0.01796096  0.71118747    -0.26200
Co202      Co  0.03965741  0.06762385  0.99990360     0.74100
C203        C  0.49140869  0.12388478  0.75633397     0.42400
N204        N  0.41305986  0.01842480  0.70369190     0.00800
N205        N  0.00324999  0.07328900  0.70857911     0.00900
N206        N  0.09873266  0.49145314  0.93107416    -0.47100
H207        H  0.07117441  0.39986615  0.75101874     0.06700
N208        N  0.07597898  0.48750334  0.71290457     0.01200
N209        N  0.00562491  0.09486971  0.95476532     0.00900
C210        C  0.49264339  0.11370683  0.90133812     0.42600
N211        N  0.41488505  0.47252307  0.70288156    -0.25700
C212        C  0.04215050  0.41506601  0.92453529    -0.06600
N213        N  0.47181346  0.40135700  0.73583350    -0.46800
N214        N  0.01837126  0.11554469  0.92495669    -0.47000
C215        C  0.50670528  0.38499277  0.90420639     0.42300
N216        N  0.07631473  0.50365071  0.95969463     0.01200
N217        N  0.41713600  0.47613167  0.94725012    -0.25700
N218        N  0.02509536  0.41694894  0.70878440    -0.26200
N219        N  0.41034329  0.02348856  0.95094105     0.00800
H220        H  0.39562190  0.43010303  0.90734497     0.06700
H221        H  0.42747554  0.10427920  0.90933571     0.06800
N222        N  0.07182064  0.03843431  0.95682872    -0.26200
N223        N  0.47049768  0.08401986  0.70661437    -0.25800
N224        N  0.48581120  0.42193679  0.95100469     0.01200
C225        C  0.10897145  0.00099394  0.76210067     0.42600
C226        C  0.39557982  0.45738782  0.73279236    -0.07100
N227        N  0.47045705  0.08519710  0.95399080    -0.25800
H228        H  0.42653603  0.11068220  0.74220469     0.06700
N229        N  0.09928646  0.47696578  0.74359183    -0.47100
H230        H  0.39474749  0.42698881  0.74057571     0.06700
C231        C  0.37568449  0.00500712  0.89917481     0.42400
C232        C  0.04084394  0.39904243  0.74095245    -0.06600
Co233      Co  0.45063033  0.44885439  0.99253450     0.73800
N234        N  0.39289126  0.03253592  0.73343723    -0.46800
C235        C  0.10663925  0.01696713  0.90682015     0.42700
N236        N  0.47430397  0.39750126  0.92171537    -0.46800
Co237      Co  0.43966264  0.05633969  0.99618117     0.73900
C238        C  0.45752880  0.10182735  0.92004708    -0.07100
C239        C  0.09054772  0.03378369  0.74210619    -0.06700
N240        N  0.02629998  0.43362612  0.95547308    -0.26200
N241        N  0.01628384  0.09609116  0.73856125    -0.46900
H242        H  0.09369953  0.08197468  0.91767174     0.06700
C243        C  0.39709709  0.46061814  0.91545099    -0.07100
Cl244      Cl  0.49225997  0.00812864  0.99907629    -0.50100
C245        C  0.38103203  0.00152382  0.75368402     0.42500
H246        H  0.07262778  0.41483030  0.91806635     0.06700
N247        N  0.38920262  0.03666694  0.91985172    -0.46800
C248        C  0.50196729  0.24118959  0.84540651    -0.16600
C249        C  0.49659880  0.26688846  0.81630376    -0.31000
H250        H  0.50765162  0.25148666  0.87597122     0.12400
H251        H  0.99386555  0.25562914  0.87522339     0.13000
C252        C  0.23082732  0.50424190  0.84739171    -0.16600
C253        C  0.25339912  0.50237899  0.81580467    -0.31800
H254        H  0.24451447  0.00576849  0.87540451     0.12400
H255        H  0.24004510  0.50362825  0.78583848     0.13000
C256        C  0.18631427  0.00551409  0.17611381     0.80100
N257        N  0.16554988  0.00520084  0.20951750    -0.78200
C258        C  0.13080974  0.52126588  0.20632224     0.82500
N259        N  0.11222672  0.52577475  0.17005251    -0.78200
C260        C  0.13262704  0.52525028  0.13634855     0.82600
N261        N  0.16749739  0.01017266  0.13980033    -0.79900
C262        C  0.29483191  0.00616284  0.15329442     0.80100
N263        N  0.31542424  0.00920646  0.11993580    -0.78200
C264        C  0.35928831  0.49474198  0.12179293     0.82500
N265        N  0.37790079  0.48938744  0.15801092    -0.78200
C266        C  0.35778138  0.49160808  0.19196726     0.82600
N267        N  0.31406976  0.00263005  0.18956736    -0.79900
C268        C  0.48856948  0.69530355  0.17274165     0.80100
N269        N  0.48730383  0.67326629  0.20585967    -0.78200
C270        C  0.48347951  0.63410645  0.20250896     0.82500
N271        N  0.48107381  0.61667988  0.16576521    -0.78200
C272        C  0.48289560  0.63842223  0.13241925     0.82600
N273        N  0.48672687  0.67772309  0.13592325    -0.79900
C274        C  0.49185401  0.80525472  0.15264928     0.80100
N275        N  0.49216710  0.82819878  0.12008324    -0.78200
C276        C  0.49274878  0.86749167  0.12455254     0.82500
N277        N  0.49312102  0.88402615  0.16156944    -0.78200
C278        C  0.49257064  0.86140222  0.19423214     0.82600
N279        N  0.49209005  0.82202725  0.18984239    -0.79900
C280        C  0.49406841  0.89205040  0.08970563     0.42300
N281        N  0.47632910  0.92748158  0.04047581     0.01200
C282        C  0.08858531  0.55145867  0.26186596    -0.06700
H283        H  0.09098971  0.58886270  0.08664812     0.06700
C284        C  0.44913335  0.60125327  0.07112866    -0.07000
Co285      Co  0.04702767  0.95562760  0.33384690     0.74200
N286        N  0.07025197  0.54231122  0.04674736    -0.26200
Co287      Co  0.03534667  0.55989453  0.33434259     0.74100
C288        C  0.48231928  0.61927975  0.09292611     0.42400
N289        N  0.41146179  0.51426478  0.03515161     0.00800
N290        N  0.99892234  0.59297324  0.04330332     0.00900
N291        N  0.09470671  0.97804507  0.26282235    -0.47100
H292        H  0.06549014  0.91132994  0.08041138     0.06700
N293        N  0.07571503  0.00041947  0.04411512     0.01200
N294        N  0.99965564  0.58488134  0.28965193     0.00900
C295        C  0.48316065  0.61080314  0.23857766     0.42600
N296        N  0.41280524  0.98647990  0.03824378    -0.25700
C297        C  0.03409206  0.90393781  0.25659935    -0.06600
N298        N  0.46264441  0.90564229  0.06880575    -0.46800
N299        N  0.01113837  0.60793986  0.26122701    -0.47000
C300        C  0.49391347  0.87976263  0.23395025     0.42300
N301        N  0.07406315  0.99027602  0.29299634     0.01200
N302        N  0.41255506  0.97580939  0.28055367    -0.25700
N303        N  0.02014269  0.93453371  0.04066704    -0.26200
N304        N  0.41093318  0.50768014  0.28483564     0.00800
H305        H  0.38563891  0.93308455  0.23982951     0.06700
H306        H  0.41928734  0.59448262  0.24657806     0.06800
N307        N  0.06996195  0.53468122  0.29136260    -0.26200
N308        N  0.46443518  0.58271647  0.03991128    -0.25800
N309        N  0.47635861  0.91594783  0.28261696     0.01200
C310        C  0.11137810  0.52581020  0.09717325     0.42600
C311        C  0.39212191  0.97304326  0.06782758    -0.07100
N312        N  0.46462905  0.57513092  0.28859285    -0.25800
H313        H  0.41868115  0.60197278  0.07773152     0.06700
N314        N  0.09663260  0.98688668  0.07507774    -0.47100
H315        H  0.38819627  0.94277816  0.07504343     0.06700
C316        C  0.37875967  0.48927963  0.23129755     0.42400
C317        C  0.03494693  0.91423772  0.07167489    -0.06600
Co318      Co  0.44387886  0.94516064  0.32498695     0.73800
N319        N  0.38999894  0.52633958  0.06478880    -0.46800
C320        C  0.10833910  0.51951712  0.24224753     0.42700
N321        N  0.46261941  0.89433167  0.25193687    -0.46800
Co322      Co  0.43716465  0.54203474  0.33051558     0.73900
C323        C  0.44965261  0.59348341  0.25632562    -0.07100
C324        C  0.09035560  0.55825913  0.07840459    -0.06700
N325        N  0.01901312  0.92367055  0.28716168    -0.26200
N326        N  0.01009197  0.61627311  0.07366420    -0.46900
H327        H  0.08860315  0.58210110  0.25533820     0.06700
C328        C  0.39050973  0.96321321  0.24878216    -0.07100
Cl329      Cl  0.49351917  0.49791920  0.33260978    -0.50100
C330        C  0.38112281  0.49439368  0.08527634     0.42500
H331        H  0.06468354  0.90155143  0.25081407     0.06700
N332        N  0.38888037  0.52054913  0.25429818    -0.46800
C333        C  0.49126840  0.73803010  0.17776943    -0.16600
C334        C  0.49096253  0.76247241  0.14691839    -0.31000
H335        H  0.49271461  0.74973380  0.20821684     0.12400
H336        H  0.99171023  0.75719850  0.11759654     0.13000
C337        C  0.22915270  0.00226889  0.18022868    -0.16600
C338        C  0.25190162  0.00665286  0.14915214    -0.31800
H339        H  0.24657951  0.50789084  0.21003635     0.12400
H340        H  0.23871898  0.01137176  0.11952428     0.13000
C341        C  0.18892086  0.99645770  0.50995961     0.80100
N342        N  0.16814297  0.99464373  0.54333238    -0.78200
C343        C  0.12774061  0.50935345  0.53979001     0.82500
N344        N  0.10913547  0.51492067  0.50366973    -0.78200
C345        C  0.12936022  0.51318141  0.46983742     0.82600
N346        N  0.16982267  0.00031004  0.47360755    -0.79900
C347        C  0.29761087  0.99813739  0.48644819     0.80100
N348        N  0.31774705  0.99758762  0.45258102    -0.78200
C349        C  0.35599844  0.48746833  0.45588744     0.82500
N350        N  0.37455826  0.48620814  0.49246439    -0.78200
C351        C  0.35394149  0.48855552  0.52593068     0.82600
N352        N  0.31736122  0.99888401  0.52274400    -0.79900
C353        C  0.48678508  0.69556364  0.50510573     0.80100
N354        N  0.48576070  0.67300446  0.53762774    -0.78200
C355        C  0.48249840  0.63404241  0.53354135     0.82500
N356        N  0.48069288  0.61697346  0.49679532    -0.78200
C357        C  0.48235953  0.63898171  0.46378265     0.82600
N358        N  0.48538175  0.67852698  0.46779120    -0.79900
C359        C  0.48929992  0.80626485  0.48967456     0.80100
N360        N  0.48904772  0.82895238  0.45717750    -0.78200
C361        C  0.49184865  0.86795031  0.46120679     0.82500
N362        N  0.49496914  0.88491309  0.49812488    -0.78200
C363        C  0.49475790  0.86266965  0.53123490     0.82600
N364        N  0.49200135  0.82313271  0.52704012    -0.79900
C365        C  0.49332120  0.89098803  0.42548718     0.42300
N366        N  0.47636144  0.91744212  0.37027237     0.01200
C367        C  0.08658757  0.54113194  0.59518546    -0.06700
H368        H  0.08799747  0.57810549  0.42212973     0.06700
C369        C  0.44895947  0.59866321  0.40467070    -0.07000
Co370      Co  0.04625475  0.94504607  0.66658786     0.74200
N371        N  0.07007243  0.53311278  0.37911161    -0.26200
Co372      Co  0.03428931  0.55097605  0.66802859     0.74100
C373        C  0.48192185  0.61921429  0.42445581     0.42400
N374        N  0.41137683  0.50715354  0.37203527     0.00800
N375        N  0.99958425  0.58399983  0.37666050     0.00900
N376        N  0.09552867  0.96550018  0.59595466    -0.47100
H377        H  0.06179260  0.90142334  0.41749285     0.06700
N378        N  0.07423850  0.98843121  0.38016457     0.01200
N379        N  0.99903843  0.57527999  0.62294451     0.00900
C380        C  0.48224135  0.61070231  0.56887353     0.42600
N381        N  0.41277373  0.97500217  0.36774728    -0.25700
C382        C  0.03132990  0.89244009  0.58991569    -0.06600
N383        N  0.46227093  0.90011495  0.40146815    -0.46800
N384        N  0.01073401  0.59781397  0.59423530    -0.47000
C385        C  0.49655586  0.88187750  0.57108493     0.42300
N386        N  0.07312184  0.97839361  0.62445064     0.01200
N387        N  0.41491923  0.97875815  0.61604600    -0.25700
N388        N  0.01793030  0.92256393  0.37477329    -0.26200
N389        N  0.40923472  0.50991930  0.61583301     0.00800
H390        H  0.39066302  0.93402874  0.57614622     0.06700
H391        H  0.41841961  0.59424184  0.57632494     0.06800
N392        N  0.06885722  0.52513551  0.62568585    -0.26200
N393        N  0.46442278  0.57657042  0.37597195    -0.25800
N394        N  0.47861873  0.91903186  0.61929795     0.01200
C395        C  0.10853888  0.51489779  0.43067134     0.42600
C396        C  0.39229027  0.96136574  0.39756429    -0.07100
N397        N  0.46341717  0.57711224  0.61968306    -0.25800
H398        H  0.41828058  0.60112469  0.41010511     0.06700
N399        N  0.09688855  0.97469792  0.40977550    -0.47100
H400        H  0.38808559  0.93103387  0.40438081     0.06700
C401        C  0.37462194  0.48877553  0.56517926     0.42400
C402        C  0.03166047  0.90331910  0.40701791    -0.06600
Co403      Co  0.44592888  0.94896128  0.66129380     0.73800
N404        N  0.38897453  0.51922887  0.40084340    -0.46800
C405        C  0.10582417  0.50867889  0.57597212     0.42700
N406        N  0.46522472  0.89656525  0.58905158    -0.46800
Co407      Co  0.43541957  0.54466383  0.66122403     0.73900
C408        C  0.44861461  0.59406093  0.58665403    -0.07100
C409        C  0.08840571  0.54797912  0.41232542    -0.06700
N410        N  0.01721248  0.91193154  0.62117801    -0.26200
N411        N  0.01069785  0.60674523  0.40743960    -0.46900
H412        H  0.08606835  0.57152078  0.58754014     0.06700
C413        C  0.39431256  0.96445597  0.58405361    -0.07100
Cl414      Cl  0.49285799  0.50230019  0.66409648    -0.50100
C415        C  0.37852907  0.48709680  0.42008801     0.42500
H416        H  0.06159662  0.89065725  0.58272936     0.06700
N417        N  0.38552643  0.52130486  0.58590034    -0.46800
C418        C  0.48929891  0.73808806  0.51207790    -0.16600
C419        C  0.48703219  0.76373123  0.48263856    -0.31000
H420        H  0.49247670  0.74857102  0.54288084     0.12400
H421        H  0.98160295  0.74708506  0.45113908     0.13000
C422        C  0.23197654  0.99545993  0.51416707    -0.16600
C423        C  0.25457001  0.99795077  0.48269616    -0.31800
H424        H  0.24268195  0.49243113  0.54265314     0.12400
H425        H  0.24112828  0.99987659  0.45279638     0.13000
C426        C  0.18859532  0.00513004  0.84064817     0.80100
N427        N  0.16794330  0.01109765  0.87374015    -0.78200
C428        C  0.12882969  0.52084854  0.87367960     0.82500
N429        N  0.10951533  0.51911603  0.83741968    -0.78200
C430        C  0.12917804  0.51165194  0.80393409     0.82600
N431        N  0.16942416  0.00086796  0.80424771    -0.79900
C432        C  0.29766727  0.00367393  0.81898060     0.80100
N433        N  0.31900745  0.00294065  0.78592030    -0.78200
C434        C  0.35540263  0.49155989  0.78757471     0.82500
N435        N  0.37503235  0.49016320  0.82359262    -0.78200
C436        C  0.35556989  0.49352537  0.85776270     0.82600
N437        N  0.31617844  0.00491555  0.85587301    -0.79900
C438        C  0.48517186  0.69883511  0.82477961     0.80100
N439        N  0.48495845  0.68361429  0.86234320    -0.78200
C440        C  0.48251341  0.64416928  0.86678274     0.82500
N441        N  0.48016159  0.62054731  0.83387797    -0.78200
C442        C  0.48064602  0.63583540  0.79692130     0.82600
N443        N  0.48338928  0.67462837  0.79254444    -0.79900
C444        C  0.48818592  0.81073247  0.83763373     0.80100
N445        N  0.49011940  0.82565486  0.80008500    -0.78200
C446        C  0.49237395  0.86506128  0.79538978     0.82500
N447        N  0.49293486  0.88897613  0.82804600    -0.78200
C448        C  0.49066257  0.87398315  0.86497158     0.82600
N449        N  0.48835340  0.83519707  0.86963230    -0.79900
C450        C  0.49485497  0.88257689  0.75566595     0.42300
N451        N  0.47788525  0.91988314  0.70675109     0.01200
C452        C  0.08765856  0.55626917  0.92784524    -0.06700
H453        H  0.08700177  0.57227623  0.75340938     0.06700
C454        C  0.44747669  0.59476087  0.73900527    -0.07000
Co455      Co  0.04821554  0.96692769  0.99873660     0.74200
N456        N  0.06878265  0.52524515  0.71315798    -0.26200
Co457      Co  0.03486926  0.56805509  0.00130091     0.74100
C458        C  0.48087829  0.61080699  0.76173752     0.42400
N459        N  0.40912573  0.51044287  0.70266553     0.00800
N460        N  0.99847756  0.57549131  0.70992881     0.00900
N461        N  0.09544637  0.98616244  0.92751053    -0.47100
H462        H  0.06316747  0.89127611  0.74942859     0.06700
N463        N  0.07387580  0.97977685  0.71173558     0.01200
N464        N  0.99875408  0.59232766  0.95610109     0.00900
C465        C  0.48220079  0.62619835  0.90651606     0.42600
N466        N  0.41503610  0.97999777  0.70347922    -0.25700
C467        C  0.03346321  0.91414292  0.92254635    -0.06600
N468        N  0.46393229  0.89716604  0.73436456    -0.46800
N469        N  0.00978789  0.61496419  0.92704926    -0.47000
C470        C  0.49238564  0.89909049  0.90006658     0.42300
N471        N  0.07490817  0.00013628  0.95690138     0.01200
N472        N  0.41191824  0.98518520  0.95132098    -0.25700
N473        N  0.01792805  0.91283136  0.70866493    -0.26200
N474        N  0.41169503  0.51422157  0.94770269     0.00800
H475        H  0.38694271  0.94044062  0.91186725     0.06700
H476        H  0.41875052  0.60731871  0.91360462     0.06800
N477        N  0.06944839  0.54143291  0.95879343    -0.26200
N478        N  0.46276003  0.57761772  0.70709172    -0.25800
N479        N  0.47573129  0.92808078  0.95319246     0.01200
C480        C  0.10785724  0.50984355  0.76493722     0.42600
C481        C  0.39542834  0.96670267  0.73407609    -0.07100
N482        N  0.46475384  0.58413192  0.95248448    -0.25800
H483        H  0.41708397  0.59524233  0.74572941     0.06700
N484        N  0.09698993  0.96824777  0.74218228    -0.47100
H485        H  0.39208344  0.93654766  0.74178501     0.06700
C486        C  0.37753512  0.49356514  0.89642054     0.42400
C487        C  0.03270455  0.89318501  0.74012079    -0.06600
Co488      Co  0.44362479  0.95604818  0.99596252     0.73800
N489        N  0.38636771  0.52260023  0.73109536    -0.46800
C490        C  0.10713360  0.52294705  0.90998335     0.42700
N491        N  0.46144667  0.90921589  0.92101362    -0.46800
Co492      Co  0.43736600  0.54929375  0.99362293     0.73900
C493        C  0.44936713  0.60558272  0.92252311    -0.07100
C494        C  0.08732502  0.54171487  0.74527156    -0.06700
N495        N  0.01932485  0.93445434  0.95320998    -0.26200
N496        N  0.00967117  0.59858029  0.74036565    -0.46900
H497        H  0.08742364  0.58643322  0.91916750     0.06700
C498        C  0.39090195  0.97089716  0.91964932    -0.07100
Cl499      Cl  0.49406880  0.50564871  0.99593833    -0.50100
C500        C  0.37662478  0.49065122  0.75099495     0.42500
H501        H  0.06384093  0.91113197  0.91605044     0.06700
N502        N  0.38830476  0.52588630  0.91760295    -0.46800
C503        C  0.48735811  0.74106438  0.81701211    -0.16600
C504        C  0.48643544  0.76851444  0.84560166    -0.31000
H505        H  0.48918400  0.74979102  0.78607071     0.12400
H506        H  0.98717231  0.75499521  0.87848727     0.13000
C507        C  0.23157163  0.00420053  0.84521639    -0.16600
C508        C  0.25468070  0.00290037  0.81401104    -0.31800
H509        H  0.24412014  0.50339936  0.87740679     0.12400
H510        H  0.24180181  0.00180793  0.78378041     0.13000
C511        C  0.68874763  0.50807368  0.17597777     0.80100
N512        N  0.66788698  0.50709235  0.20935574    -0.78200
C513        C  0.62978737  0.99860753  0.20464370     0.82500
N514        N  0.61106111  0.00120615  0.16831415    -0.78200
C515        C  0.63166425  0.00522326  0.13518983     0.82600
N516        N  0.66971458  0.51146409  0.13949757    -0.79900
C517        C  0.79787727  0.50090330  0.15365301     0.80100
N518        N  0.81864427  0.49985897  0.12018674    -0.78200
C519        C  0.85882471  0.00718886  0.12294297     0.82500
N520        N  0.87741928  0.00239969  0.15917400    -0.78200
C521        C  0.85676926  0.00170957  0.19267267     0.82600
N522        N  0.81668184  0.49618379  0.19003703    -0.79900
C523        C  0.99069408  0.20034627  0.17583563     0.80100
N524        N  0.98943998  0.17791056  0.20866169    -0.78200
C525        C  0.98699190  0.13866740  0.20482872     0.82500
N526        N  0.98604534  0.12156272  0.16787706    -0.78200
C527        C  0.98787925  0.14376646  0.13481389     0.82600
N528        N  0.99011586  0.18312269  0.13886129    -0.79900
C529        C  0.99838970  0.30994444  0.15552600     0.80100
N530        N  0.00137957  0.33195035  0.12257320    -0.78200
C531        C  0.00880494  0.37060543  0.12632316     0.82500
N532        N  0.01258612  0.38759404  0.16310146    -0.78200
C533        C  0.00869738  0.36607135  0.19618485     0.82600
N534        N  0.00143363  0.32726084  0.19245680    -0.79900
C535        C  0.00904383  0.39450075  0.09085223     0.42300
N536        N  0.98832779  0.42685041  0.04040577     0.01200
C537        C  0.59277861  0.03322742  0.26022476    -0.06700
H538        H  0.59979173  0.07334874  0.08652990     0.06700
C539        C  0.95312085  0.10958372  0.07242846    -0.07000
Co540      Co  0.54995660  0.45387376  0.33422711     0.74200
N541        N  0.57258864  0.03004673  0.04673707    -0.26200
Co542      Co  0.54162144  0.04906767  0.33233929     0.74100
C543        C  0.98701476  0.12534178  0.09484996     0.42400
N544        N  0.91190443  0.02523486  0.03697596     0.00800
N545        N  0.50839626  0.08937359  0.04402743     0.00900
N546        N  0.59736729  0.47723490  0.26293790    -0.47100
H547        H  0.56763134  0.41059412  0.08409695     0.06700
N548        N  0.57651360  0.49674262  0.04441558     0.01200
N549        N  0.50922297  0.07820346  0.28798817     0.00900
C550        C  0.98582298  0.11506180  0.24065135     0.42600
N551        N  0.91811180  0.47708287  0.03804894    -0.25700
C552        C  0.53767694  0.40175687  0.25717677    -0.06600
N553        N  0.97692922  0.40318067  0.06826580    -0.46800
N554        N  0.52312966  0.09939299  0.25923712    -0.47000
C555        C  0.00930223  0.38553724  0.23534188     0.42300
N556        N  0.57584966  0.48901587  0.29268918     0.01200
N557        N  0.91739435  0.47003642  0.28182594    -0.25700
N558        N  0.52289393  0.42908389  0.04089887    -0.26200
N559        N  0.90999093  0.01456217  0.28534908     0.00800
H560        H  0.89734170  0.42444253  0.24045021     0.06700
H561        H  0.92137093  0.10105507  0.24849684     0.06800
N562        N  0.57218663  0.01920219  0.28956624    -0.26200
N563        N  0.96757673  0.09121550  0.04066205    -0.25800
N564        N  0.98817034  0.41900422  0.28422059     0.01200
C565        C  0.61097133  0.00805680  0.09634122     0.42600
C566        C  0.89992974  0.46109337  0.06827525    -0.07100
N567        N  0.96586976  0.08005376  0.29058186    -0.25800
H568        H  0.92280230  0.11105682  0.07936784     0.06700
N569        N  0.59876326  0.48440161  0.07507480    -0.47100
H570        H  0.90038000  0.43072984  0.07593655     0.06700
C571        C  0.87712108  0.99821183  0.23184440     0.42400
C572        C  0.53738846  0.41124808  0.07368395    -0.06600
Co573      Co  0.95259769  0.44348520  0.32648591     0.73800
N574        N  0.89073783  0.03823745  0.06644462    -0.46800
C575        C  0.60748851  0.99888946  0.24032820     0.42700
N576        N  0.97692949  0.39521814  0.25435378    -0.46800
Co577      Co  0.93722186  0.04699715  0.33175839     0.73900
C578        C  0.95165140  0.09908704  0.25841590    -0.07100
C579        C  0.59490245  0.04310718  0.07807309    -0.06700
N580        N  0.52253371  0.42074587  0.28816867    -0.26200
N581        N  0.52209662  0.11059463  0.07498637    -0.46900
H582        H  0.59692245  0.06361594  0.25377789     0.06700
C583        C  0.89770410  0.45479746  0.24959230    -0.07100
Cl584      Cl  0.99214599  0.00132852  0.33262419    -0.50100
C585        C  0.88079403  0.00659946  0.08682618     0.42500
H586        H  0.56810012  0.40070229  0.25056609     0.06700
N587        N  0.88826606  0.02877923  0.25531159    -0.46800
C588        C  0.99330783  0.24306548  0.18121153    -0.16600
C589        C  0.99291072  0.26746080  0.15032708    -0.31000
H590        H  0.99625239  0.25465805  0.21164328     0.12400
H591        H  0.48828116  0.25490129  0.11920785     0.13000
C592        C  0.73176222  0.50473900  0.18039044    -0.16600
C593        C  0.75509795  0.50648260  0.14939896    -0.31800
H594        H  0.74591939  0.00296749  0.20972158     0.12400
H595        H  0.74239665  0.51095144  0.11954385     0.13000
C596        C  0.68987309  0.49675366  0.50949246     0.80100
N597        N  0.66991058  0.50183079  0.54320894    -0.78200
C598        C  0.62664244  0.99800754  0.53776064     0.82500
N599        N  0.60820175  0.99943066  0.50106901    -0.78200
C600        C  0.62893375  0.99582611  0.46770231     0.82600
N601        N  0.67051801  0.49893631  0.47309337    -0.79900
C602        C  0.79827720  0.48528855  0.48596862     0.80100
N603        N  0.81905098  0.48624303  0.45251324    -0.78200
C604        C  0.85614981  0.98962047  0.45673653     0.82500
N605        N  0.87461952  0.98590820  0.49316335    -0.78200
C606        C  0.85372096  0.98407833  0.52641860     0.82600
N607        N  0.81740137  0.48191818  0.52236089    -0.79900
C608        C  0.98941603  0.19373309  0.50891928     0.80100
N609        N  0.98801580  0.17116660  0.54173150    -0.78200
C610        C  0.98484470  0.13192732  0.53761057     0.82500
N611        N  0.98329691  0.11507914  0.50074914    -0.78200
C612        C  0.98512145  0.13722906  0.46788325     0.82600
N613        N  0.98820650  0.17655426  0.47187346    -0.79900
C614        C  0.99990616  0.30333178  0.48829323     0.80100
N615        N  0.00302613  0.32511366  0.45518156    -0.78200
C616        C  0.00937196  0.36399242  0.45852673     0.82500
N617        N  0.01210887  0.38142997  0.49527277    -0.78200
C618        C  0.00827322  0.36004999  0.52861181     0.82600
N619        N  0.00199821  0.32103310  0.52506833    -0.79900
C620        C  0.00942997  0.38741140  0.42243927     0.42300
N621        N  0.98854794  0.41866236  0.37106109     0.01200
C622        C  0.59019971  0.03675658  0.59248230    -0.06700
H623        H  0.59749549  0.06270221  0.41761882     0.06700
C624        C  0.95072990  0.10005391  0.40772931    -0.07000
Co625      Co  0.55026082  0.45987694  0.66704226     0.74200
N626        N  0.57304176  0.01900609  0.37651537    -0.26200
Co627      Co  0.54115458  0.05591546  0.66642079     0.74100
C628        C  0.98434050  0.11823457  0.42851071     0.42400
N629        N  0.91040084  0.01191756  0.37259528     0.00800
N630        N  0.50964882  0.07672363  0.37539917     0.00900
N631        N  0.59969238  0.48115805  0.59767952    -0.47100
H632        H  0.56810954  0.39596228  0.41467404     0.06700
N633        N  0.57614198  0.48841082  0.38007948     0.01200
N634        N  0.50882093  0.08485708  0.62123947     0.00900
C635        C  0.98396742  0.10755926  0.57268268     0.42600
N636        N  0.91824423  0.46901178  0.36946044    -0.25700
C637        C  0.53809619  0.41017298  0.58894930    -0.06600
N638        N  0.97722686  0.39588119  0.39978039    -0.46800
N639        N  0.52247845  0.10763118  0.59352640    -0.47000
C640        C  0.00845293  0.37951207  0.56804595     0.42300
N641        N  0.57674905  0.49378888  0.62571357     0.01200
N642        N  0.91665392  0.46072961  0.61606291    -0.25700
N643        N  0.52239055  0.41916795  0.37543477    -0.26200
N644        N  0.90897165  0.00204405  0.61689563     0.00800
H645        H  0.89737075  0.41463287  0.57488234     0.06700
H646        H  0.91955770  0.09283089  0.58035932     0.06800
N647        N  0.57158839  0.02431101  0.62417027    -0.26200
N648        N  0.96558803  0.07917028  0.37788372    -0.25800
N649        N  0.98737204  0.41006514  0.61906538     0.01200
C650        C  0.60903857  0.99777231  0.42818451     0.42600
C651        C  0.90006043  0.45253605  0.39940463    -0.07100
N652        N  0.96472507  0.06856877  0.61958159    -0.25800
H653        H  0.92018629  0.10287000  0.41353331     0.06700
N654        N  0.59943047  0.47618346  0.40998707    -0.47100
H655        H  0.90028861  0.42198060  0.40636694     0.06700
C656        C  0.87402545  0.98278470  0.56576494     0.42400
C657        C  0.53754120  0.39782720  0.40559444    -0.06600
Co658      Co  0.95146477  0.43463690  0.66142878     0.73800
N659        N  0.88928012  0.02354019  0.40267974    -0.46800
C660        C  0.60457035  0.00140080  0.57374343     0.42700
N661        N  0.97612496  0.38793567  0.58779039    -0.46800
Co662      Co  0.93646944  0.03644753  0.66159272     0.73900
C663        C  0.95008491  0.08960370  0.58906990    -0.07100
C664        C  0.59369739  0.03243748  0.40882126    -0.06700
N665        N  0.52291596  0.42706272  0.62105195    -0.26200
N666        N  0.52394116  0.09548874  0.40765200    -0.46900
H667        H  0.59292094  0.06663217  0.58353906     0.06700
C668        C  0.89762834  0.44510544  0.58360093    -0.07100
Cl669      Cl  0.99121725  0.99065392  0.66418364    -0.50100
C670        C  0.87853937  0.99086740  0.42092849     0.42500
H671        H  0.56847163  0.40972462  0.58211689     0.06700
N672        N  0.88666399  0.01463613  0.58648419    -0.46800
C673        C  0.99284426  0.23651084  0.51428303    -0.16600
C674        C  0.99459616  0.26073271  0.48334057    -0.31000
H675        H  0.99447258  0.24826246  0.54466847     0.12400
H676        H  0.49349923  0.25523171  0.54239601     0.13000
C677        C  0.73246986  0.48990485  0.51339969    -0.16600
C678        C  0.75530951  0.48906813  0.48191030    -0.31800
H679        H  0.74232359  0.98445036  0.54274147     0.12400
H680        H  0.74225480  0.49225094  0.45197264     0.13000
C681        C  0.69035591  0.50781316  0.84169835     0.80100
N682        N  0.66962416  0.51005628  0.87513377    -0.78200
C683        C  0.62848987  0.00755377  0.87372987     0.82500
N684        N  0.60930274  0.00674411  0.83737285    -0.78200
C685        C  0.62955316  0.00680883  0.80357783     0.82600
N686        N  0.67140672  0.50988811  0.80508146    -0.79900
C687        C  0.79888845  0.49538722  0.81990238     0.80100
N688        N  0.81940437  0.48912079  0.78678367    -0.78200
C689        C  0.85617360  0.99146314  0.78990323     0.82500
N690        N  0.87546150  0.99452238  0.82607656    -0.78200
C691        C  0.85569381  0.00262521  0.85932829     0.82600
N692        N  0.81786804  0.49604366  0.85659103    -0.79900
C693        C  0.99182306  0.19707391  0.82056272     0.80100
N694        N  0.99105866  0.18202329  0.85790711    -0.78200
C695        C  0.98755871  0.14298848  0.86261676     0.82500
N696        N  0.98472339  0.11900440  0.82995941    -0.78200
C697        C  0.98586206  0.13383798  0.79275977     0.82600
N698        N  0.98957577  0.17274987  0.78815391    -0.79900
C699        C  0.00080018  0.30782417  0.83901334     0.80100
N700        N  0.00242379  0.32327301  0.80194757    -0.78200
C701        C  0.00807246  0.36213746  0.79794477     0.82500
N702        N  0.01187791  0.38558194  0.83097130    -0.78200
C703        C  0.00967764  0.37033893  0.86788256     0.82600
N704        N  0.00382921  0.33163550  0.87175315    -0.79900
C705        C  0.00839638  0.37920800  0.75820443     0.42300
N706        N  0.98728539  0.40999116  0.70644237     0.01200
C707        C  0.59286255  0.04368752  0.93011564    -0.06700
H708        H  0.59707345  0.07153814  0.75102055     0.06700
C709        C  0.95058021  0.09071208  0.73688437    -0.07000
Co710      Co  0.55066238  0.46188622  0.99891071     0.74200
N711        N  0.57234648  0.02647077  0.71185642    -0.26200
Co712      Co  0.54111181  0.06006233  0.00215213     0.74100
C713        C  0.98469098  0.10784844  0.75774711     0.42400
N714        N  0.90980636  0.00370502  0.70374266     0.00800
N715        N  0.50886980  0.08616406  0.70846091     0.00900
N716        N  0.59869656  0.48425099  0.92836979    -0.47100
H717        H  0.56727085  0.41092620  0.75219009     0.06700
N718        N  0.57645962  0.49456183  0.71236743     0.01200
N719        N  0.50884154  0.08724889  0.95662959     0.00900
C720        C  0.98657641  0.12654781  0.90270501     0.42600
N721        N  0.91703744  0.46127173  0.70427057    -0.25700
C722        C  0.53957850  0.40534995  0.92442773    -0.06600
N723        N  0.97602189  0.38778379  0.73571274    -0.46800
N724        N  0.52334204  0.10470127  0.92577710    -0.47000
C725        C  0.00937742  0.39586135  0.90319053     0.42300
N726        N  0.57646294  0.49655010  0.95721551     0.01200
N727        N  0.91766599  0.47638592  0.95065661    -0.25700
N728        N  0.52226661  0.42753996  0.70857774    -0.26200
N729        N  0.91106788  0.02441059  0.94948333     0.00800
H730        H  0.89911059  0.42896429  0.91111087     0.06700
H731        H  0.92246805  0.11117327  0.91080905     0.06800
N732        N  0.57231457  0.03009981  0.95983536    -0.26200
N733        N  0.96499009  0.06977094  0.70676975    -0.25800
N734        N  0.98845944  0.42695627  0.95359313     0.01200
C735        C  0.60851339  0.00714026  0.76442943     0.42600
C736        C  0.89924081  0.44653234  0.73556606    -0.07100
N737        N  0.96736175  0.09096019  0.95279987    -0.25800
H738        H  0.92014568  0.09388985  0.74300780     0.06700
N739        N  0.60017252  0.48304122  0.74221639    -0.47100
H740        H  0.89952714  0.41636988  0.74429784     0.06700
C741        C  0.87671589  0.00377206  0.89839373     0.42400
C742        C  0.53705816  0.41090625  0.74176754    -0.06600
Co743      Co  0.95270823  0.45117892  0.99564855     0.73800
N744        N  0.88877958  0.01800434  0.73255406    -0.46800
C745        C  0.60684700  0.00904368  0.91001341     0.42700
N746        N  0.97716938  0.40416503  0.92297093    -0.46800
Co747      Co  0.93872665  0.05871949  0.99482612     0.73900
C748        C  0.95282614  0.10975210  0.92062451    -0.07100
C749        C  0.59316767  0.04106960  0.74358180    -0.06700
N750        N  0.52390480  0.42699173  0.95338460    -0.26200
N751        N  0.52256657  0.10916658  0.73812133    -0.46900
H752        H  0.59707194  0.07401705  0.92321447     0.06700
C753        C  0.89876536  0.45953265  0.91892556    -0.07100
Cl754      Cl  0.99363543  0.01292905  0.99692565    -0.50100
C755        C  0.87782209  0.98747502  0.75376146     0.42500
H756        H  0.57024173  0.40326407  0.91892870     0.06700
N757        N  0.88842147  0.03628930  0.91884061    -0.46800
C758        C  0.99530846  0.23943726  0.81439811    -0.16600
C759        C  0.99604342  0.26556229  0.84471004    -0.31000
H760        H  0.99746735  0.24930508  0.78389352     0.12400
H761        H  0.49081633  0.25653122  0.78572967     0.13000
C762        C  0.73311310  0.50291858  0.84623159    -0.16600
C763        C  0.75627583  0.50134359  0.81507554    -0.31800
H764        H  0.74462886  0.01044812  0.87716183     0.12400
H765        H  0.74359521  0.50347510  0.78489817     0.13000
C766        C  0.69003264  0.00461403  0.17502239     0.80100
N767        N  0.66913587  0.00063700  0.20802771    -0.78200
C768        C  0.62853790  0.51012303  0.20672158     0.82500
N769        N  0.60972634  0.51409437  0.17040455    -0.78200
C770        C  0.63017615  0.51465273  0.13667050     0.82600
N771        N  0.67116467  0.00697910  0.13844574    -0.79900
C772        C  0.79861424  0.00934433  0.15333552     0.80100
N773        N  0.81954310  0.01053932  0.12007606    -0.78200
C774        C  0.85749369  0.49287118  0.12267994     0.82500
N775        N  0.87593844  0.48729493  0.15882103    -0.78200
C776        C  0.85570023  0.48914033  0.19258511     0.82600
N777        N  0.81738022  0.00521410  0.18975874    -0.79900
C778        C  0.98832449  0.70127872  0.17332669     0.80100
N779        N  0.98595535  0.67907631  0.20626571    -0.78200
C780        C  0.97917694  0.64027260  0.20257908     0.82500
N781        N  0.97527075  0.62332204  0.16569226    -0.78200
C782        C  0.97841733  0.64501027  0.13249645     0.82600
N783        N  0.98512441  0.68398685  0.13633057    -0.79900
C784        C  0.99708157  0.81149730  0.15368891     0.80100
N785        N  0.99817140  0.83407628  0.12087816    -0.78200
C786        C  0.00059501  0.87335929  0.12482350     0.82500
N787        N  0.00173938  0.89032921  0.16173249    -0.78200
C788        C  0.00024386  0.86814735  0.19473527     0.82600
N789        N  0.99789532  0.82872461  0.19073305    -0.79900
C790        C  0.00114039  0.89742961  0.08933150     0.42300
N791        N  0.98189469  0.93105091  0.03908569     0.01200
C792        C  0.58901001  0.54254922  0.26307736    -0.06700
H793        H  0.59200088  0.58001605  0.08674736     0.06700
C794        C  0.94527870  0.60500086  0.07238239    -0.07000
Co795      Co  0.54522334  0.94864673  0.33023383     0.74200
N796        N  0.57136649  0.53481126  0.04512463    -0.26200
Co797      Co  0.53726526  0.55444370  0.33612163     0.74100
C798        C  0.97776234  0.62562401  0.09298658     0.42400
N799        N  0.91083968  0.51481478  0.03792150     0.00800
N800        N  0.50252891  0.58798943  0.04207689     0.00900
N801        N  0.59461233  0.96723826  0.25886385    -0.47100
H802        H  0.55898997  0.90253688  0.08056655     0.06700
N803        N  0.57404540  0.99165173  0.04579206     0.01200
N804        N  0.50271956  0.58028242  0.29087879     0.00900
C805        C  0.97907729  0.61639141  0.23834283     0.42600
N806        N  0.91611838  0.98705405  0.03700980    -0.25700
C807        C  0.52845462  0.89540503  0.25524965    -0.06600
N808        N  0.96923483  0.90892221  0.06773404    -0.46800
N809        N  0.51503290  0.60173893  0.26153249    -0.47000
C810        C  0.00058778  0.88704506  0.23437804     0.42300
N811        N  0.57372296  0.98080816  0.28829860     0.01200
N812        N  0.91410435  0.97642248  0.28283927    -0.25700
N813        N  0.51473913  0.92884675  0.04181063    -0.26200
N814        N  0.91059432  0.50784096  0.28326776     0.00800
H815        H  0.89248179  0.93343790  0.23928084     0.06700
H816        H  0.91591505  0.59649115  0.24511662     0.06800
N817        N  0.57061996  0.52706848  0.29345048    -0.26200
N818        N  0.96108612  0.58599850  0.04165124    -0.25800
N819        N  0.98075236  0.92022284  0.28426059     0.01200
C820        C  0.60927558  0.51611807  0.09724637     0.42600
C821        C  0.89741167  0.97269064  0.06764577    -0.07100
N822        N  0.96182993  0.57793839  0.28696937    -0.25800
H823        H  0.91491170  0.60477725  0.07916429     0.06700
N824        N  0.59626808  0.97726516  0.07532630    -0.47100
H825        H  0.89566405  0.94236030  0.07539761     0.06700
C826        C  0.87681369  0.48766794  0.23162513     0.42400
C827        C  0.52861070  0.90728372  0.07221182    -0.06600
Co828      Co  0.94649717  0.94645525  0.32697432     0.73800
N829        N  0.88782727  0.52586319  0.06662382    -0.46800
C830        C  0.60656566  0.50952046  0.24310057     0.42700
N831        N  0.96845089  0.89883732  0.25281094    -0.46800
Co832      Co  0.93566767  0.54302266  0.32876059     0.73900
C833        C  0.94628121  0.59653148  0.25503755    -0.07100
C834        C  0.59076624  0.54960679  0.07782757    -0.06700
N835        N  0.51477474  0.91718927  0.28505583    -0.26200
N836        N  0.51447465  0.60948339  0.07353920    -0.46900
H837        H  0.58981884  0.57301749  0.25583859     0.06700
C838        C  0.89451807  0.96344559  0.24956920    -0.07100
Cl839      Cl  0.99398068  0.50167766  0.33019611    -0.50100
C840        C  0.87979032  0.49345854  0.08672364     0.42500
H841        H  0.55879804  0.89097701  0.24935926     0.06700
N842        N  0.88667418  0.51957190  0.25372963    -0.46800
C843        C  0.99364620  0.74393397  0.17875890    -0.16600
C844        C  0.99413124  0.76864546  0.14811014    -0.31000
H845        H  0.99613417  0.75539810  0.20923409     0.12400
H846        H  0.48954799  0.75090792  0.11647998     0.13000
C847        C  0.73288054  0.00624429  0.17981424    -0.16600
C848        C  0.75572305  0.01063429  0.14883513    -0.31800
H849        H  0.74448126  0.50025292  0.21021449     0.12400
H850        H  0.74269789  0.01382295  0.11892761     0.13000
C851        C  0.68678954  0.99055467  0.50793271     0.80100
N852        N  0.66578221  0.99341000  0.54110329    -0.78200
C853        C  0.63137382  0.51044539  0.54083731     0.82500
N854        N  0.61236470  0.51319769  0.50457889    -0.78200
C855        C  0.63174834  0.50720825  0.47065693     0.82600
N856        N  0.66822023  0.99161195  0.47113966    -0.79900
C857        C  0.79559816  0.98901025  0.48651246     0.80100
N858        N  0.81676408  0.99112414  0.45347031    -0.78200
C859        C  0.85840896  0.48306316  0.45508794     0.82500
N860        N  0.87726738  0.47905717  0.49131452    -0.78200
C861        C  0.85688276  0.47852766  0.52502650     0.82600
N862        N  0.81421043  0.98577209  0.52313187    -0.79900
C863        C  0.98250871  0.69124053  0.50680620     0.80100
N864        N  0.98169335  0.66876721  0.53961900    -0.78200
C865        C  0.97852628  0.62960395  0.53567492     0.82500
N866        N  0.97661220  0.61260105  0.49881335    -0.78200
C867        C  0.97810408  0.63477157  0.46583853     0.82600
N868        N  0.98112959  0.67409002  0.46978405    -0.79900
C869        C  0.98803768  0.80104250  0.48738841     0.80100
N870        N  0.99012919  0.82363641  0.45476816    -0.78200
C871        C  0.99535463  0.86258353  0.45903195     0.82500
N872        N  0.99820795  0.87922288  0.49612750    -0.78200
C873        C  0.99542484  0.85694923  0.52895576     0.82600
N874        N  0.99036377  0.81787114  0.52456872    -0.79900
C875        C  0.99723553  0.88650773  0.42357906     0.42300
N876        N  0.97972657  0.91840694  0.37157780     0.01200
C877        C  0.59044400  0.54626328  0.59475993    -0.06700
H878        H  0.59236349  0.57184620  0.42191578     0.06700
C879        C  0.94573043  0.59602783  0.40528604    -0.07000
Co880      Co  0.54607948  0.95388283  0.66748639     0.74200
N881        N  0.57083226  0.52651669  0.38108588    -0.26200
Co882      Co  0.53647952  0.55848371  0.66733034     0.74100
C883        C  0.97814541  0.61596045  0.42638507     0.42400
N884        N  0.91136816  0.50680982  0.37029483     0.00800
N885        N  0.50253897  0.58147484  0.37810358     0.00900
N886        N  0.59370635  0.97107722  0.59545230    -0.47100
H887        H  0.55829520  0.90011967  0.41642162     0.06700
N888        N  0.57483929  0.98069790  0.37570902     0.01200
N889        N  0.50146170  0.58271949  0.62225938     0.00900
C890        C  0.97872878  0.60576915  0.57114886     0.42600
N891        N  0.91391596  0.97368637  0.37028342    -0.25700
C892        C  0.53094169  0.89862867  0.59228632    -0.06600
N893        N  0.96615034  0.89679572  0.40014682    -0.46800
N894        N  0.51395227  0.60319233  0.59243579    -0.47000
C895        C  0.99725205  0.87526601  0.56888066     0.42300
N896        N  0.57403254  0.98594411  0.62512805     0.01200
N897        N  0.91222632  0.96376506  0.61707620    -0.25700
N898        N  0.51476932  0.91929175  0.37234712    -0.26200
N899        N  0.91025228  0.49861283  0.61657127     0.00800
H900        H  0.88838133  0.91844498  0.57747647     0.06700
H901        H  0.91543480  0.58640854  0.57792518     0.06800
N902        N  0.57101174  0.53169918  0.62499657    -0.26200
N903        N  0.96173927  0.57735578  0.37462186    -0.25800
N904        N  0.97894131  0.90802869  0.61969439     0.01200
C905        C  0.61023884  0.50809414  0.43176930     0.42600
C906        C  0.89463405  0.95784372  0.39977805    -0.07100
N907        N  0.96124545  0.56841491  0.62016828    -0.25800
H908        H  0.91520692  0.59594135  0.41173555     0.06700
N909        N  0.59595928  0.96670254  0.40636446    -0.47100
H910        H  0.89242157  0.92720718  0.40574296     0.06700
C911        C  0.87784486  0.47786853  0.56424360     0.42400
C912        C  0.52810963  0.90259506  0.40609438    -0.06600
Co913      Co  0.94541281  0.93577673  0.66213933     0.73800
N914        N  0.88876879  0.51745573  0.39955150    -0.46800
C915        C  0.60961149  0.51261710  0.57718284     0.42700
N916        N  0.96577835  0.88660712  0.58862802    -0.46800
Co917      Co  0.93488344  0.53428846  0.66193195     0.73900
C918        C  0.94582788  0.58651059  0.58799122    -0.07100
C919        C  0.59083693  0.54142106  0.41322159    -0.06700
N920        N  0.51699072  0.92082303  0.62186390    -0.26200
N921        N  0.51424518  0.60625656  0.40704413    -0.46900
H922        H  0.59139912  0.57653613  0.58648145     0.06700
C923        C  0.89131384  0.94898409  0.58546190    -0.07100
Cl924      Cl  0.99300224  0.49279666  0.66463923    -0.50100
C925        C  0.88053012  0.48464238  0.41894774     0.42500
H926        H  0.56133471  0.89444529  0.58653659     0.06700
N927        N  0.88737777  0.51006432  0.58604809    -0.46800
C928        C  0.98510438  0.73388402  0.51232788    -0.16600
C929        C  0.98426910  0.75847266  0.48163189    -0.31000
H930        H  0.98779652  0.74531465  0.54283839     0.12400
H931        H  0.48368186  0.75326357  0.45185667     0.13000
C932        C  0.72957708  0.98767929  0.51270396    -0.16600
C933        C  0.75272472  0.99039905  0.48173230    -0.31800
H934        H  0.74553427  0.48713126  0.54332748     0.12400
H935        H  0.73996209  0.99408632  0.45178111     0.13000
C936        C  0.68842457  0.00887227  0.84284986     0.80100
N937        N  0.66787849  0.00877747  0.87639304    -0.78200
C938        C  0.63054786  0.51540865  0.87230957     0.82500
N939        N  0.61185412  0.51809549  0.83590723    -0.78200
C940        C  0.63213155  0.51517020  0.80223422     0.82600
N941        N  0.66914049  0.00796819  0.80631131    -0.79900
C942        C  0.79690350  0.00377520  0.82004210     0.80100
N943        N  0.81708407  0.99649199  0.78691429    -0.78200
C944        C  0.85819007  0.48194511  0.79005215     0.82500
N945        N  0.87692431  0.48211030  0.82665988    -0.78200
C946        C  0.85689856  0.48942570  0.85997687     0.82600
N947        N  0.81634875  0.00698938  0.85638866    -0.79900
C948        C  0.98477201  0.69555035  0.82392095     0.80100
N949        N  0.98293331  0.68009443  0.86102000    -0.78200
C950        C  0.97762823  0.64110435  0.86499020     0.82500
N951        N  0.97441783  0.61766682  0.83191986    -0.78200
C952        C  0.97683120  0.63291458  0.79504293     0.82600
N953        N  0.98229758  0.67166862  0.79120434    -0.79900
C954        C  0.99303869  0.80672410  0.84090632     0.80100
N955        N  0.99457260  0.82103719  0.80330860    -0.78200
C956        C  0.99808389  0.85996478  0.79791397     0.82500
N957        N  0.00008094  0.88460051  0.83001221    -0.78200
C958        C  0.99814382  0.87054479  0.86740471     0.82600
N959        N  0.99449503  0.83172458  0.87279696    -0.79900
C960        C  0.99907969  0.87579506  0.75773490     0.42300
N961        N  0.97968248  0.90900393  0.70698701     0.01200
C962        C  0.59003617  0.54957586  0.92691535    -0.06700
H963        H  0.59255061  0.57884041  0.75218892     0.06700
C964        C  0.94460907  0.58810300  0.73837675    -0.07000
Co965      Co  0.54470964  0.95983038  0.00034084     0.74200
N966        N  0.57087525  0.53250842  0.71263348    -0.26200
Co967      Co  0.53758349  0.56241111  0.99973548     0.74100
C968        C  0.97732044  0.60736985  0.75973832     0.42400
N969        N  0.91039225  0.49910990  0.70356717     0.00800
N970        N  0.50085551  0.58293754  0.70929619     0.00900
N971        N  0.59389879  0.97781805  0.92912604    -0.47100
H972        H  0.55982917  0.89595661  0.74899810     0.06700
N973        N  0.57404344  0.98805472  0.71273131     0.01200
N974        N  0.50282591  0.58947482  0.95470988     0.00900
C975        C  0.97733972  0.62372806  0.90472100     0.42600
N976        N  0.91338558  0.96547235  0.70472228    -0.25700
C977        C  0.52731838  0.91180295  0.92242167    -0.06600
N978        N  0.96714816  0.88752406  0.73622177    -0.46800
N979        N  0.51449344  0.61382459  0.92730384    -0.47000
C980        C  0.99923291  0.89724232  0.90177586     0.42300
N981        N  0.57350603  0.99177439  0.95874273     0.01200
N982        N  0.91501958  0.98620452  0.94981484    -0.25700
N983        N  0.51622078  0.92215889  0.70928906    -0.26200
N984        N  0.91029761  0.51408255  0.95066118     0.00800
H985        H  0.89233209  0.94009102  0.91080039     0.06700
H986        H  0.91467687  0.60261329  0.91196659     0.06800
N987        N  0.57108689  0.53464875  0.95719490    -0.26200
N988        N  0.96059832  0.56905991  0.70783184    -0.25800
N989        N  0.98108021  0.93081925  0.95177204     0.01200
C990        C  0.61107121  0.51542010  0.76315018     0.42600
C991        C  0.89405951  0.95245602  0.73577272    -0.07100
N992        N  0.96096721  0.58517033  0.95381335    -0.25800
H993        H  0.91404237  0.58872673  0.74449288     0.06700
N994        N  0.59514979  0.97527352  0.74402826    -0.47100
H995        H  0.89169084  0.92242978  0.74451922     0.06700
C996        C  0.87779257  0.49116409  0.89923055     0.42400
C997        C  0.52951403  0.90007482  0.73973141    -0.06600
Co998      Co  0.94796560  0.95816320  0.99442204     0.73800
N999        N  0.88852781  0.51140732  0.73263659    -0.46800
C1000       C  0.60837742  0.51614790  0.90832316     0.42700
N1001       N  0.96781169  0.90843208  0.92155364    -0.46800
Co1002     Co  0.93502461  0.55059160  0.99596116     0.73900
C1003       C  0.94505190  0.60335123  0.92183423    -0.07100
C1004       C  0.59117260  0.54823421  0.74415925    -0.06700
N1005       N  0.51409750  0.92997678  0.95470858    -0.26200
N1006       N  0.51287089  0.60319575  0.74143967    -0.46900
H1007       H  0.59102446  0.57995862  0.91915573     0.06700
C1008       C  0.89465197  0.97072621  0.91838719    -0.07100
Cl1009     Cl  0.99365621  0.50964510  0.99863612    -0.50100
C1010       C  0.88038443  0.47997121  0.75396556     0.42500
H1011       H  0.55746243  0.90859074  0.91519501     0.06700
N1012       N  0.88655086  0.52422779  0.92018650    -0.46800
C1013       C  0.98930972  0.73784931  0.81794656    -0.16600
C1014       C  0.98962419  0.76442840  0.84783690    -0.31000
H1015       H  0.99173266  0.74742942  0.78735531     0.12400
H1016       H  0.48442312  0.75982767  0.87652334     0.13000
C1017       C  0.73139676  0.00935046  0.84712748    -0.16600
C1018       C  0.75405514  0.00679828  0.81567959    -0.31800
H1019       H  0.74582443  0.50040478  0.87636753     0.12400
H1020       H  0.74077404  0.00511828  0.78563325     0.13000
loop_ 
_geom_bond_atom_site_label_1 
_geom_bond_atom_site_label_2 
_geom_bond_distance 
_geom_bond_site_symmetry_2 
_ccdc_geom_bond_type 
C1            N2   1.359       .  A
C1            N6   1.366       .  A
C1           C82   1.488       .  S
N2          C258   1.357       .  A
C3            N4   1.359       .  A
C3          N257   1.355       .  A
C3           C65   1.459       .  S
N4            C5   1.359       .  A
C5          N261   1.359       .  A
C5           C55   1.468       .  S
N6          C260   1.364       .  A
C7            N8   1.358       .  A
C7           N12   1.365       .  A
C7           C83   1.487       .  S
N8          C264   1.356       .  A
C9           N10   1.354       .  A
C9          N263   1.355       .  A
C9           C75   1.453       .  S
N10          C11   1.354       .  A
C11         N267   1.360       .  A
C11          C61   1.460   1_545  S
N12         C266   1.364       .  A
C13          N14   1.357       .  A
C13          N18   1.362       .  A
C13          C78   1.477       .  S
N14          C15   1.356       .  A
C15          N16   1.356       .  A
C15          C40   1.457       .  S
N16          C17   1.356       .  A
C17          N18   1.358       .  A
C17          C33   1.461       .  S
C19          N20   1.356       .  A
C19          N24   1.361       .  A
C19          C79   1.476       .  S
N20          C21   1.355       .  A
C21          N22   1.357       .  A
C21          C25   1.457       .  S
N22          C23   1.358       .  A
C23          N24   1.359       .  A
C23          C45   1.462       .  S
C25          N43   1.346       .  A
C25         C572   1.455       .  S
N26          N43   1.324       .  A
N26         N558   1.321       .  A
N26        Co233   2.082   1_554  S
C27          N52   1.341       .  A
C27          C65   1.453       .  S
C27          H72   1.080       .  S
H28          C69   1.083       .  S
C29          N53   1.341       .  A
C29          C33   1.456       .  S
C29          H58   1.081       .  S
Co30         N70   2.094       .  S
Co30         N46   2.091       .  S
Co30        N133   2.094       .  S
Co30        N123   2.084       .  S
Co30       Cl839   2.456   1_455  S
N31          C69   1.346       .  A
N31         N293   1.321       .  A
N31        Co202   2.104   1_554  S
Co32         N52   2.084       .  S
Co32         N39   2.089       .  S
Co32        N116   2.097       .  S
Co32        N120   2.087       .  S
Co32       Cl584   2.454   1_455  S
C33         N581   1.349       .  A
N34          N64   1.326       .  A
N34         N296   1.321   1_545  A
N34        Co237   2.086   1_554  S
N35          N71   1.328       .  A
N35         N563   1.322   1_455  A
N35        Co202   2.097   1_554  S
N36         C320   1.350       .  A
N36          N46   1.326       .  A
H37          C62   1.082       .  S
N38          N59   1.326       .  A
N38         N286   1.322       .  A
N38        Co200   2.085       .  S
N39          N44   1.325       .  A
N39         N567   1.321   1_455  A
C40         N554   1.347       .  A
C40          C68   1.452       .  S
N41          C56   1.343       .  A
N41         N289   1.320       .  A
N41        Co233   2.087   1_554  S
C42          N70   1.342       .  A
C42         C555   1.459       .  S
C42          H76   1.082       .  S
N44         C550   1.348   1_455  A
C45          N66   1.348       .  A
C45         C552   1.457       .  S
N46         N307   1.321       .  A
N47          C73   1.348       .  A
N47         N304   1.321       .  A
N47         Co63   2.106       .  S
N48          C62   1.343       .  A
N48         N536   1.320   1_455  A
N48        Co200   2.087       .  S
N49          N77   1.324       .  A
N49         N302   1.322   1_545  A
N49         Co67   2.081       .  S
H50          C73   1.082       .  S
H51          C68   1.082       .  S
N52         N301   1.321   1_545  A
N53         N545   1.321       .  A
N53        Co237   2.090   1_554  S
N54          N66   1.324       .  A
N54         N580   1.321       .  A
N54         Co63   2.084       .  S
C55         N314   1.346   1_545  A
C55          C69   1.461       .  S
C56         C330   1.455       .  S
C56          H60   1.080       .  S
N57          C68   1.340       .  A
N57         N549   1.320       .  A
N57         Co67   2.082       .  S
N59         C310   1.348       .  A
C61          N77   1.346   1_565  A
C61         C328   1.459       .  S
C62         C535   1.457       .  S
Co63        N111   2.102       .  S
Co63        N126   2.093       .  S
Co63       Cl329   2.458       .  S
N64          C75   1.348       .  A
C65         N291   1.348   1_545  A
Co67        N119   2.081       .  S
Co67        N138   2.074       .  S
Co67        Cl74   2.449   1_545  S
N70         N564   1.321   1_455  A
N71         C543   1.351   1_455  A
C73         C316   1.464       .  S
Cl74       Co795   2.452       .  S
Cl74       Co542   2.451   1_565  S
Cl74       Co318   2.453       .  S
C75         C311   1.450   1_545  S
C78          C79   1.342       .  D
C78          H80   1.088       .  S
C79         H591   1.088       .  S
H81         C589   1.087       .  S
C82          C83   1.345       .  D
C82         H339   1.085       .  S
C83          H85   1.086       .  S
H84         C337   1.084   1_565  S
C86          N87   1.356       .  A
C86          N91   1.362       .  A
C86         C167   1.479       .  S
N87         C343   1.355       .  A
C88         N342   1.356       .  A
C88          N89   1.355   1_565  A
C88         C150   1.454       .  S
N89          C90   1.355       .  A
C90         N346   1.361       .  A
C90         C140   1.465       .  S
N91         C345   1.361       .  A
C92          N93   1.358       .  A
C92          N97   1.363       .  A
C92         C168   1.480       .  S
N93         C349   1.357       .  A
C94         N348   1.355       .  A
C94          N95   1.358       .  A
C94         C160   1.460       .  S
N95          C96   1.358       .  A
C96         N352   1.362       .  A
C96         C146   1.468       .  S
N97         C351   1.360       .  A
C98          N99   1.370       .  A
C98         N103   1.351       .  A
C98         C163   1.481       .  S
N99         C100   1.369       .  A
C100        N101   1.356       .  A
C100        C125   1.475       .  S
N101        C102   1.354       .  A
C102        N103   1.349       .  A
C102        C118   1.446       .  S
C104        N105   1.370       .  A
C104        N109   1.350       .  A
C104        C164   1.481       .  S
N105        C106   1.368       .  A
C106        N107   1.356       .  A
C106        C110   1.474       .  S
N107        C108   1.354       .  A
C108        N109   1.349       .  A
C108        C130   1.445       .  S
C110        N128   1.353       .  A
C110        C657   1.462       .  S
N111        N128   1.328       .  A
N111        N643   1.321       .  A
C112        N137   1.338       .  A
C112        C150   1.450   1_545  S
C112        H157   1.082       .  S
H113        C154   1.082       .  S
C114        N138   1.338       .  A
C114        C118   1.449       .  S
C114        H143   1.081       .  S
Co115       N218   2.089       .  S
Co115       N208   2.100       .  S
Co115       N155   2.102       .  S
Co115       N131   2.084       .  S
Co115      Cl924   2.455   1_455  S
N116        C154   1.344       .  A
N116        N378   1.321   1_545  A
Co117       N201   2.079       .  S
Co117       N205   2.080       .  S
Co117       N137   2.075       .  S
Co117       N124   2.080       .  S
Co117      Cl669   2.452   1_445  S
C118        N666   1.345       .  A
N119        N381   1.319   1_545  A
N119        N149   1.325       .  A
N120        N648   1.321   1_455  A
N120        N156   1.325       .  A
N121        C405   1.348       .  A
N121        N131   1.324       .  A
H122        C147   1.080       .  S
N123        N371   1.321       .  A
N123        N144   1.324       .  A
N124        N652   1.320   1_455  A
N124        N129   1.324       .  A
C125        N639   1.353       .  A
C125        C153   1.463       .  S
N126        C141   1.342       .  A
N126        N374   1.323       .  A
C127        N155   1.345       .  A
C127        C640   1.459       .  S
C127        H161   1.081       .  S
N129        C635   1.346   1_455  A
C130        N151   1.343       .  A
C130        C637   1.451       .  S
N131        N392   1.320       .  A
N132        C158   1.342       .  A
N132        N389   1.319       .  A
N132       Co148   2.088       .  S
N133        C147   1.345       .  A
N133        N621   1.321   1_455  A
N134        N387   1.323   1_545  A
N134        N162   1.328       .  A
N134       Co152   2.100       .  S
H135        C158   1.083       .  S
H136        C153   1.083       .  S
N137        N386   1.321   1_545  A
N138        N630   1.320       .  A
N139        N151   1.321       .  A
N139        N665   1.321       .  A
N139       Co148   2.069       .  S
C140        N399   1.347   1_545  A
C140        C154   1.460       .  S
C141        C415   1.456       .  S
C141        H145   1.081       .  S
N142        C153   1.344       .  A
N142        N634   1.320       .  A
N142       Co152   2.099       .  S
N144        C395   1.347       .  A
C146        N162   1.351   1_565  A
C146        C413   1.456       .  S
C147        C620   1.458       .  S
Co148       N196   2.073       .  S
Co148       N211   2.082       .  S
Co148      Cl414   2.446       .  S
N149        C160   1.347   1_545  A
C150        N376   1.348       .  A
Co152       N204   2.092       .  S
Co152       N223   2.102       .  S
Co152      Cl159   2.460       .  S
N155        N649   1.322   1_455  A
N156        C628   1.349   1_455  A
C158        C401   1.457       .  S
Cl159      Co880   2.461   1_545  S
Cl159      Co627   2.461       .  S
Cl159      Co403   2.461   1_545  S
C160        C396   1.454       .  S
C163        C164   1.334       .  D
C163        H165   1.088       .  S
C164        H676   1.088       .  S
H166        C674   1.087       .  S
C167        C168   1.343       .  D
C167        H424   1.085       .  S
C168        H170   1.085       .  S
H169        C422   1.085       .  S
C171        N172   1.357       .  A
C171        N176   1.364       .  A
C171        C252   1.481       .  S
N172        C428   1.356       .  A
C173        N427   1.355       .  A
C173        N174   1.356       .  A
C173        C235   1.459       .  S
N174        C175   1.357       .  A
C175        N431   1.361       .  A
C175        C225   1.465       .  S
N176        C430   1.361       .  A
C177        N178   1.356       .  A
C177        N182   1.365       .  A
C177        C253   1.481       .  S
N178        C434   1.354       .  A
C179        N433   1.356       .  A
C179        N180   1.358       .  A
C179        C245   1.460       .  S
N180        C181   1.358       .  A
C181        N437   1.360       .  A
C181        C231   1.466       .  S
N182        C436   1.363       .  A
C183        N184   1.350       .  A
C183        N188   1.368       .  A
C183        C248   1.476       .  S
N184        C185   1.348       .  A
C185        N186   1.356       .  A
C185        C210   1.446       .  S
N186        C187   1.357       .  A
C187        N188   1.366       .  A
C187        C203   1.473       .  S
C189        N190   1.350       .  A
C189        N194   1.368       .  A
C189        C249   1.475       .  S
N190        C191   1.348       .  A
C191        N192   1.354       .  A
C191        C195   1.443       .  S
N192        C193   1.355       .  A
C193        N194   1.366       .  A
C193        C215   1.470       .  S
C195        N213   1.344       .  A
C195        C742   1.448       .  S
N196        N213   1.322       .  A
N196        N728   1.321       .  A
C197        N222   1.346       .  A
C197        C235   1.461       .  S
C197        H242   1.082       .  S
H198        C239   1.081       .  S
C199        N223   1.344       .  A
C199        C203   1.462       .  S
C199        H228   1.082       .  S
Co200       N240   2.094   1_554  S
Co200       N216   2.069   1_554  S
Co200     Cl1009   2.456   1_454  S
N201        C239   1.338       .  A
N201        N463   1.321   1_545  A
Co202       N222   2.100       .  S
Co202       N209   2.101       .  S
Co202      Cl754   2.457   1_455  S
C203        N751   1.352       .  A
N204        N466   1.323   1_545  A
N204        N234   1.326       .  A
N205        N733   1.320   1_455  A
N205        N241   1.324       .  A
N206        C490   1.343       .  A
N206        N216   1.321       .  A
H207        C232   1.081       .  S
N208        N456   1.321       .  A
N208        N229   1.328       .  A
N209        N737   1.321   1_455  A
N209        N214   1.328       .  A
C210        N724   1.344       .  A
C210        C238   1.449       .  S
N211        C226   1.341       .  A
N211        N459   1.319       .  A
C212        N240   1.345       .  A
C212        C725   1.458       .  S
C212        H246   1.081       .  S
N214        C720   1.351   1_455  A
C215        N236   1.350       .  A
C215        C722   1.462       .  S
N216        N477   1.321       .  A
N217        C243   1.343       .  A
N217        N474   1.323       .  A
N217       Co233   2.095       .  S
N218        C232   1.342       .  A
N218        N706   1.321   1_455  A
N219        N472   1.318   1_545  A
N219        N247   1.327       .  A
N219       Co237   2.094       .  S
H220        C243   1.080       .  S
H221        C238   1.082       .  S
N222        N471   1.321       .  A
N223        N715   1.320       .  A
N224        N236   1.326       .  A
N224        N750   1.320       .  A
N224       Co233   2.090       .  S
C225        N484   1.353   1_545  A
C225        C239   1.451       .  S
C226        C500   1.455       .  S
C226        H230   1.083       .  S
N227        C238   1.339       .  A
N227        N719   1.321       .  A
N227       Co237   2.073       .  S
N229        C480   1.352       .  A
C231        N247   1.351       .  A
C231        C498   1.454   1_545  S
C232        C705   1.457       .  S
Co233      Cl499   2.458       .  S
N234        C245   1.348       .  A
C235        N461   1.343   1_545  A
Co237      Cl244   2.452       .  S
N240        N734   1.320   1_455  A
N241        C713   1.347   1_455  A
C243        C486   1.458       .  S
Cl244      Co965   2.450   1_546  S
Cl244      Co712   2.451   1_556  S
Cl244      Co488   2.449   1_545  S
C245        C481   1.453   1_545  S
C248        C249   1.334       .  D
C248        H250   1.086       .  S
C249        H761   1.088       .  S
H251        C759   1.089       .  S
C252        C253   1.343       .  D
C252        H509   1.085       .  S
C253        H255   1.085       .  S
H254        C507   1.086       .  S
C256        N257   1.356       .  A
C256        N261   1.362       .  A
C256        C337   1.478       .  S
C258        N259   1.357       .  A
C258        C320   1.463       .  S
N259        C260   1.357       .  A
C260        C310   1.472       .  S
C262        N263   1.357       .  A
C262        N267   1.363       .  A
C262        C338   1.477       .  S
C264        N265   1.360       .  A
C264        C330   1.465       .  S
N265        C266   1.360       .  A
C266        C316   1.475       .  S
C268        N269   1.357       .  A
C268        N273   1.362       .  A
C268        C333   1.478       .  S
N269        C270   1.355       .  A
C270        N271   1.358       .  A
C270        C295   1.462       .  S
N271        C272   1.359       .  A
C272        N273   1.360       .  A
C272        C288   1.466       .  S
C274        N275   1.358       .  A
C274        N279   1.363       .  A
C274        C334   1.480       .  S
N275        C276   1.357       .  A
C276        N277   1.354       .  A
C276        C280   1.455       .  S
N277        C278   1.355       .  A
C278        N279   1.359       .  A
C278        C300   1.461       .  S
C280        N298   1.347       .  A
C280        C827   1.452       .  S
N281        N298   1.325       .  A
N281        N813   1.321       .  A
N281       Co488   2.084   1_554  S
C282        N307   1.342       .  A
C282        C320   1.454       .  S
C282        H327   1.080       .  S
H283        C324   1.083       .  S
C284        N308   1.343       .  A
C284        C288   1.458       .  S
C284        H313   1.081       .  S
Co285       N388   2.089       .  S
Co285       N378   2.087       .  S
Co285       N325   2.092       .  S
Co285       N301   2.083       .  S
Co285      Cl584   2.454   1_465  S
N286        C324   1.347       .  A
N286       Co457   2.110       .  S
Co287       N371   2.097       .  S
Co287       N375   2.081   1_455  S
Co287       N307   2.088       .  S
Co287       N294   2.087   1_455  S
Co287      Cl839   2.455   1_455  S
C288        N836   1.349       .  A
N289        N319   1.326       .  A
N289       Co492   2.088   1_554  S
N290        N818   1.322       .  A
N290        N326   1.326   1_655  A
N290       Co457   2.089   1_655  S
N291        N301   1.325       .  A
H292        C317   1.082       .  S
N293        N314   1.325   1_545  A
N293       Co455   2.082   1_544  S
N294        N822   1.322       .  A
N294        N299   1.325   1_655  A
C295        N809   1.348       .  A
C295        C323   1.455       .  S
N296        C311   1.336       .  A
N296       Co488   2.077   1_554  S
C297        N325   1.343       .  A
C297        C810   1.457       .  S
C297        H331   1.082       .  S
N299        C805   1.347   1_455  A
C300        N321   1.350       .  A
C300        C807   1.455       .  S
N302        C328   1.342       .  A
N302       Co318   2.094       .  S
N303        C317   1.342       .  A
N303        N791   1.320   1_455  A
N303       Co455   2.082   1_554  S
N304        N332   1.326       .  A
N304       Co322   2.087       .  S
H305        C328   1.084       .  S
H306        C323   1.080       .  S
N308        N800   1.321       .  A
N308       Co492   2.096   1_554  S
N309        N321   1.326       .  A
N309        N835   1.321       .  A
N309       Co318   2.090       .  S
C310        C324   1.464       .  S
C311        H315   1.083       .  S
N312        C323   1.342       .  A
N312        N804   1.321       .  A
N312       Co322   2.085       .  S
C316        N332   1.348       .  A
C317        C790   1.454       .  S
Co318       N366   2.084       .  S
Co318       N381   2.083       .  S
N319        C330   1.349       .  A
Co322       N374   2.083       .  S
Co322       N393   2.100       .  S
Co322      Cl329   2.459       .  S
N325        N819   1.320   1_455  A
N326        C798   1.349   1_455  A
Cl329      Co540   2.460       .  S
Cl329      Co797   2.457       .  S
C333        C334   1.343       .  D
C333        H335   1.089       .  S
C334        H846   1.087       .  S
H336        C844   1.088       .  S
C337        C338   1.342       .  D
C338        H340   1.086       .  S
C341        N342   1.358       .  A
C341        N346   1.364   1_565  A
C341        C422   1.481       .  S
C343        N344   1.358       .  A
C343        C405   1.458       .  S
N344        C345   1.358       .  A
C345        C395   1.466       .  S
C347        N348   1.357       .  A
C347        N352   1.364       .  A
C347        C423   1.480       .  S
C349        N350   1.356       .  A
C349        C415   1.458       .  S
N350        C351   1.356       .  A
C351        C401   1.464       .  S
C353        N354   1.350       .  A
C353        N358   1.370       .  A
C353        C418   1.479       .  S
N354        C355   1.349       .  A
C355        N356   1.353       .  A
C355        C380   1.442       .  S
N356        C357   1.355       .  A
C357        N358   1.368       .  A
C357        C373   1.471       .  S
C359        N360   1.350       .  A
C359        N364   1.369       .  A
C359        C419   1.479       .  S
N360        C361   1.348       .  A
C361        N362   1.357       .  A
C361        C365   1.450       .  S
N362        C363   1.359       .  A
C363        N364   1.367       .  A
C363        C385   1.477       .  S
C365        N383   1.346       .  A
C365        C912   1.448       .  S
N366        N383   1.324       .  A
N366        N898   1.321       .  A
C367        N392   1.341       .  A
C367        C405   1.453       .  S
C367        H412   1.080       .  S
H368        C409   1.081       .  S
C369        N393   1.344       .  A
C369        C373   1.462       .  S
C369        H398   1.082       .  S
Co370       N473   2.086       .  S
Co370       N463   2.101       .  S
Co370       N410   2.098       .  S
Co370       N386   2.085       .  S
Co370      Cl669   2.456   1_455  S
N371        C409   1.345       .  A
Co372       N456   2.086       .  S
Co372       N460   2.078   1_455  S
Co372       N392   2.081       .  S
Co372       N379   2.078   1_455  S
Co372      Cl924   2.452   1_455  S
C373        N921   1.351       .  A
N374        N404   1.324       .  A
N375        N903   1.320       .  A
N375        N411   1.325   1_655  A
N376        N386   1.325       .  A
H377        C402   1.080       .  S
N378        N399   1.325       .  A
N379        N907   1.320       .  A
N379        N384   1.323   1_655  A
C380        N894   1.343       .  A
C380        C408   1.449       .  S
N381        C396   1.341       .  A
C382        N410   1.343       .  A
C382        C895   1.458   1_455  S
C382        H416   1.081       .  S
N384        C890   1.345   1_455  A
C385        N406   1.352       .  A
C385        C892   1.463       .  S
N387        C413   1.342       .  A
N387       Co403   2.094       .  S
N388        C402   1.343       .  A
N388        N876   1.321   1_455  A
N389        N417   1.326       .  A
N389       Co407   2.087       .  S
H390        C413   1.081       .  S
H391        C408   1.079       .  S
N393        N885   1.320       .  A
N394        N406   1.328       .  A
N394        N920   1.320       .  A
N394       Co403   2.097       .  S
C395        C409   1.461       .  S
C396        H400   1.083       .  S
N397        C408   1.338       .  A
N397        N889   1.321       .  A
N397       Co407   2.072       .  S
C401        N417   1.350       .  A
C402        C875   1.456   1_455  S
Co403       N451   2.102       .  S
Co403       N466   2.086       .  S
N404        C415   1.347       .  A
Co407       N459   2.076       .  S
Co407       N478   2.081       .  S
Co407      Cl414   2.453       .  S
N410        N904   1.322   1_455  A
N411        C883   1.348   1_455  A
Cl414      Co625   2.453       .  S
Cl414      Co882   2.445       .  S
C418        C419   1.334       .  D
C418        H420   1.087       .  S
C419        H931   1.087       .  S
H421        C929   1.087       .  S
C422        C423   1.343       .  D
C423        H425   1.086       .  S
C426        N427   1.357       .  A
C426        N431   1.364       .  A
C426        C507   1.479       .  S
C428        N429   1.357       .  A
C428        C490   1.458       .  S
N429        C430   1.358       .  A
C430        C480   1.467       .  S
C432        N433   1.357       .  A
C432        N437   1.363       .  A
C432        C508   1.480       .  S
C434        N435   1.356       .  A
C434        C500   1.456       .  S
N435        C436   1.356       .  A
C436        C486   1.468       .  S
C438        N439   1.372       .  A
C438        N443   1.351       .  A
C438        C503   1.482       .  S
N439        C440   1.370       .  A
C440        N441   1.357       .  A
C440        C465   1.478       .  S
N441        C442   1.354       .  A
C442        N443   1.348       .  A
C442        C458   1.447       .  S
C444        N445   1.371       .  A
C444        N449   1.350       .  A
C444        C504   1.483       .  S
N445        C446   1.370       .  A
C446        N447   1.356       .  A
C446        C450   1.477       .  S
N447        C448   1.354       .  A
C448        N449   1.348       .  A
C448        C470   1.445       .  S
C450        N468   1.353       .  A
C450        C997   1.464       .  S
N451        N468   1.329       .  A
N451        N983   1.320       .  A
C452        N477   1.345       .  A
C452        C490   1.460       .  S
C452        H497   1.082       .  S
H453        C494   1.081       .  S
C454        N478   1.341       .  A
C454        C458   1.451       .  S
C454        H483   1.080       .  S
Co455       N495   2.087       .  S
Co455       N471   2.072   1_565  S
Co455      Cl754   2.453   1_465  S
N456        C494   1.341       .  A
Co457       N477   2.096   1_554  S
Co457       N464   2.096   1_454  S
Co457     Cl1009   2.457   1_454  S
C458       N1006   1.344       .  A
N459        N489   1.323       .  A
N460        N988   1.320       .  A
N460        N496   1.324   1_655  A
N461        N471   1.322   1_565  A
H462        C487   1.081       .  S
N463        N484   1.329       .  A
N464        N992   1.321       .  A
N464        N469   1.327   1_655  A
C465        N979   1.355       .  A
C465        C493   1.462       .  S
N466        C481   1.341       .  A
C467        N495   1.342       .  A
C467        C980   1.455   1_455  S
C467        H501   1.082       .  S
N469        C975   1.350   1_455  A
C470        N491   1.345       .  A
C470        C977   1.449       .  S
N472        C498   1.341       .  A
N472       Co488   2.079       .  S
N473        C487   1.341       .  A
N473        N961   1.321   1_455  A
N474        N502   1.327       .  A
N474       Co492   2.099       .  S
H475        C498   1.082       .  S
H476        C493   1.083       .  S
N478        N970   1.322       .  A
N479        N491   1.322       .  A
N479       N1005   1.320       .  A
N479       Co488   2.073       .  S
C480        C494   1.454       .  S
C481        H485   1.081       .  S
N482        C493   1.344       .  A
N482        N974   1.321       .  A
N482       Co492   2.099       .  S
C486        N502   1.350       .  A
C487        C960   1.457   1_455  S
N489        C500   1.346       .  A
Co492      Cl499   2.459       .  S
N495        N989   1.320   1_455  A
N496        C968   1.346   1_455  A
Cl499      Co710   2.458       .  S
Cl499      Co967   2.459       .  S
C503        C504   1.334       .  D
C503        H505   1.089       .  S
C504       H1016   1.088       .  S
H506       C1014   1.089       .  S
C507        C508   1.343       .  D
C508        H510   1.086       .  S
C511        N512   1.358       .  A
C511        N516   1.365       .  A
C511        C592   1.484       .  S
N512        C768   1.356       .  A
C513        N767   1.355   1_565  A
C513        N514   1.354   1_565  A
C513        C575   1.451       .  S
N514        C515   1.354       .  A
C515        N771   1.359       .  A
C515        C565   1.458       .  S
N516        C770   1.363       .  A
C517        N518   1.358       .  A
C517        N522   1.364       .  A
C517        C593   1.484       .  S
N518        C774   1.356       .  A
C519        N773   1.355       .  A
C519        N520   1.357       .  A
C519        C585   1.457       .  S
N520        C521   1.357       .  A
C521        N777   1.359       .  A
C521        C571   1.464   1_545  S
N522        C776   1.362       .  A
C523        N524   1.357       .  A
C523        N528   1.362       .  A
C523        C588   1.479       .  S
N524        C525   1.356       .  A
C525        N526   1.360       .  A
C525        C550   1.463       .  S
N526        C527   1.360       .  A
C527        N528   1.360       .  A
C527        C543   1.470       .  S
C529        N530   1.357   1_655  A
C529        N534   1.363   1_655  A
C529        C589   1.479       .  S
N530        C531   1.356       .  A
C531        N532   1.355       .  A
C531        C535   1.457       .  S
N532        C533   1.355       .  A
C533        N534   1.360       .  A
C533        C555   1.461       .  S
C535        N553   1.345   1_455  A
N536        N553   1.323       .  A
N536       Co743   2.077   1_554  S
C537        N562   1.336       .  A
C537        C575   1.448   1_545  S
C537        H582   1.082       .  S
H538        C579   1.084       .  S
C539        N563   1.343       .  A
C539        C543   1.456       .  S
C539        H568   1.080       .  S
Co540       N643   2.101       .  S
Co540       N633   2.094       .  S
Co540       N580   2.090       .  S
Co540       N556   2.091       .  S
N541        C579   1.341       .  A
N541        N803   1.321   1_545  A
N541       Co712   2.089       .  S
Co542       N626   2.080       .  S
Co542       N630   2.072       .  S
Co542       N562   2.074       .  S
Co542       N549   2.084       .  S
N544        N806   1.321   1_545  A
N544        N574   1.325       .  A
N544       Co747   2.087   1_554  S
N545        N581   1.325       .  A
N545       Co712   2.085       .  S
N546        C830   1.350       .  A
N546        N556   1.327       .  A
H547        C572   1.082       .  S
N548        N796   1.321       .  A
N548        N569   1.327       .  A
N548       Co710   2.088   1_554  S
N549        N554   1.326       .  A
C550        C578   1.455       .  S
N551        C566   1.342       .  A
N551        N799   1.321       .  A
N551       Co743   2.083   1_554  S
C552        N580   1.342       .  A
C552        H586   1.080       .  S
C555        N576   1.347   1_455  A
N556        N817   1.321       .  A
N557        C583   1.345       .  A
N557        N814   1.321       .  A
N557       Co573   2.100       .  S
N558        C572   1.342       .  A
N558       Co710   2.086   1_554  S
N559        N812   1.321   1_545  A
N559        N587   1.325       .  A
N559       Co577   2.083       .  S
H560        C583   1.082       .  S
H561        C578   1.080       .  S
N562        N811   1.321   1_545  A
N563       Co747   2.094   1_554  S
N564        N576   1.324       .  A
N564       Co573   2.081       .  S
C565        N824   1.346   1_545  A
C565        C579   1.458       .  S
C566        C840   1.454       .  S
C566        H570   1.080       .  S
N567        C578   1.343       .  A
N567       Co577   2.087       .  S
N569        C820   1.348       .  A
C571        N587   1.346   1_565  A
C571        C838   1.459       .  S
Co573       N621   2.087       .  S
Co573       N636   2.087       .  S
Co573      Cl839   2.455       .  S
N574        C585   1.348       .  A
C575        N801   1.348       .  A
Co577       N629   2.088       .  S
Co577       N648   2.088       .  S
Co577      Cl584   2.455       .  S
C583        C826   1.462       .  S
Cl584      Co828   2.455   1_545  S
C585        C821   1.451   1_545  S
C588        C589   1.343       .  D
C588        H590   1.088       .  S
C592        C593   1.344       .  D
C592        H849   1.085       .  S
C593        H595   1.085       .  S
H594        C847   1.085       .  S
C596        N597   1.358       .  A
C596        N601   1.364       .  A
C596        C677   1.484       .  S
N597        C853   1.357       .  A
C598        N852   1.355       .  A
C598        N599   1.357       .  A
C598        C660   1.458   1_565  S
N599        C600   1.358       .  A
C600        N856   1.359       .  A
C600        C650   1.463       .  S
N601        C855   1.362       .  A
C602        N603   1.358       .  A
C602        N607   1.364       .  A
C602        C678   1.483       .  S
N603        C859   1.357       .  A
C604        N858   1.355       .  A
C604        N605   1.356       .  A
C604        C670   1.457       .  S
N605        C606   1.357       .  A
C606        N862   1.359       .  A
C606        C656   1.463       .  S
N607        C861   1.362       .  A
C608        N609   1.359       .  A
C608        N613   1.364       .  A
C608        C673   1.483       .  S
N609        C610   1.358       .  A
C610        N611   1.353       .  A
C610        C635   1.457       .  S
N611        C612   1.354       .  A
C612        N613   1.360       .  A
C612        C628   1.460       .  S
C614        N615   1.358   1_655  A
C614        N619   1.363   1_655  A
C614        C674   1.482       .  S
N615        C616   1.357       .  A
C616        N617   1.359       .  A
C616        C620   1.464       .  S
N617        C618   1.360       .  A
C618        N619   1.361       .  A
C618        C640   1.470       .  S
C620        N638   1.347   1_455  A
N621        N638   1.324       .  A
C622        N647   1.342       .  A
C622        C660   1.455       .  S
C622        H667   1.081       .  S
H623        C664   1.083       .  S
C624        N648   1.341       .  A
C624        C628   1.456       .  S
C624        H653   1.081       .  S
Co625       N728   2.070       .  S
Co625       N718   2.085       .  S
Co625       N665   2.081       .  S
Co625       N641   2.070       .  S
N626        C664   1.341       .  A
N626        N888   1.319   1_545  A
Co627       N711   2.095       .  S
Co627       N715   2.096       .  S
Co627       N647   2.089       .  S
Co627       N634   2.100       .  S
N629        N891   1.321   1_545  A
N629        N659   1.326       .  A
N630        N666   1.323       .  A
N631        C915   1.345       .  A
N631        N641   1.322       .  A
H632        C657   1.083       .  S
N633        N881   1.323       .  A
N633        N654   1.326       .  A
N634        N639   1.328       .  A
C635        C663   1.455       .  S
N636        C651   1.341       .  A
N636        N884   1.321       .  A
C637        N665   1.340       .  A
C637        H671   1.080       .  S
C640        N661   1.349   1_455  A
N641        N902   1.319       .  A
N642        C668   1.346       .  A
N642        N899   1.321       .  A
N642       Co658   2.102       .  S
N643        C657   1.344       .  A
N644        N897   1.321   1_545  A
N644        N672   1.324       .  A
N644       Co662   2.083       .  S
H645        C668   1.083       .  S
H646        C663   1.082       .  S
N647        N896   1.323   1_545  A
N649        N661   1.326       .  A
N649       Co658   2.092       .  S
C650        N909   1.349       .  A
C650        C664   1.454   1_565  S
C651        C925   1.454       .  S
C651        H655   1.080       .  S
N652        C663   1.341       .  A
N652       Co662   2.082       .  S
N654        C905   1.349       .  A
C656        N672   1.347   1_565  A
C656        C923   1.459       .  S
Co658       N706   2.092       .  S
Co658       N721   2.101       .  S
Co658      Cl924   2.457       .  S
N659        C670   1.349   1_545  A
C660        N886   1.345   1_545  A
Co662       N714   2.070       .  S
Co662       N733   2.089       .  S
Co662      Cl669   2.453   1_545  S
C668        C911   1.461       .  S
Cl669      Co913   2.458       .  S
C670        C906   1.451       .  S
C673        C674   1.345       .  D
C673        H675   1.087       .  S
C677        C678   1.345       .  D
C677        H934   1.084       .  S
C678        H680   1.086       .  S
H679        C932   1.086       .  S
C681        N682   1.357       .  A
C681        N686   1.364       .  A
C681        C762   1.481       .  S
N682        C938   1.355       .  A
C683        N937   1.354       .  A
C683        N684   1.357       .  A
C683        C745   1.455       .  S
N684        C685   1.357       .  A
C685        N941   1.361       .  A
C685        C735   1.467       .  S
N686        C940   1.362       .  A
C687        N688   1.357       .  A
C687        N692   1.364       .  A
C687        C763   1.481       .  S
N688        C944   1.356       .  A
C689        N943   1.355       .  A
C689        N690   1.356       .  A
C689        C755   1.456       .  S
N690        C691   1.357   1_565  A
C691        N947   1.361       .  A
C691        C741   1.464       .  S
N692        C946   1.361       .  A
C693        N694   1.364       .  A
C693        N698   1.358       .  A
C693        C758   1.481       .  S
N694        C695   1.360       .  A
C695        N696   1.358       .  A
C695        C720   1.468       .  S
N696        C697   1.357       .  A
C697        N698   1.357       .  A
C697        C713   1.461       .  S
C699        N700   1.363       .  A
C699        N704   1.357       .  A
C699        C759   1.479   1_455  S
N700        C701   1.361       .  A
C701        N702   1.358       .  A
C701        C705   1.465       .  S
N702        C703   1.357       .  A
C703        N704   1.356       .  A
C703        C725   1.460       .  S
C705        N723   1.350   1_455  A
N706        N723   1.326       .  A
C707        N732   1.339       .  A
C707        C745   1.451       .  S
C707        H752   1.084       .  S
H708        C749   1.080       .  S
C709        N733   1.343       .  A
C709        C713   1.456       .  S
C709        H738   1.081       .  S
Co710       N750   2.101       .  S
Co710       N726   2.083       .  S
N711        C749   1.343       .  A
N711        N973   1.323   1_545  A
Co712       N732   2.077   1_554  S
Co712       N719   2.078   1_554  S
N714        N976   1.321   1_545  A
N714        N744   1.321       .  A
N715        N751   1.328       .  A
N716       C1000   1.347       .  A
N716        N726   1.324       .  A
H717        C742   1.080       .  S
N718        N966   1.319       .  A
N718        N739   1.326       .  A
N719        N724   1.322       .  A
C720        C748   1.457       .  S
N721        C736   1.346       .  A
N721        N969   1.321       .  A
C722        N750   1.345       .  A
C722        H756   1.081       .  S
C725        N746   1.346   1_455  A
N726        N987   1.323       .  A
N727        C753   1.342       .  A
N727        N984   1.321       .  A
N727       Co743   2.085       .  S
N728        C742   1.338       .  A
N729        N982   1.321   1_545  A
N729        N757   1.328       .  A
N729       Co747   2.098       .  S
H730        C753   1.079       .  S
H731        C748   1.081       .  S
N732        N981   1.318   1_545  A
N734        N746   1.323       .  A
N734       Co743   2.076       .  S
C735        N994   1.350   1_545  A
C735        C749   1.456       .  S
C736       C1010   1.461       .  S
C736        H740   1.083       .  S
N737        C748   1.342       .  A
N737       Co747   2.091       .  S
N739        C990   1.349       .  A
C741        N757   1.352       .  A
C741       C1008   1.451   1_545  S
Co743     Cl1009   2.454       .  S
N744        C755   1.342   1_545  A
C745        N971   1.347   1_545  A
Co747      Cl754   2.457       .  S
C753        C996   1.455       .  S
Cl754      Co998   2.451   1_545  S
C755        C991   1.459       .  S
C758        C759   1.343       .  D
C758        H760   1.088       .  S
C762        C763   1.343       .  D
C762       H1019   1.086       .  S
C763        H765   1.085       .  S
H764       C1017   1.084       .  S
C766        N767   1.356       .  A
C766        N771   1.362       .  A
C766        C847   1.476       .  S
C768        N769   1.359       .  A
C768        C830   1.465       .  S
N769        C770   1.360       .  A
C770        C820   1.475       .  S
C772        N773   1.356       .  A
C772        N777   1.362       .  A
C772        C848   1.476       .  S
C774        N775   1.356       .  A
C774        C840   1.459       .  S
N775        C776   1.357       .  A
C776        C826   1.467       .  S
C778        N779   1.359       .  A
C778        N783   1.365       .  A
C778        C843   1.485       .  S
N779        C780   1.357       .  A
C780        N781   1.358       .  A
C780        C805   1.465       .  S
N781        C782   1.359       .  A
C782        N783   1.363       .  A
C782        C798   1.470       .  S
C784        N785   1.359       .  A
C784        N789   1.364       .  A
C784        C844   1.485       .  S
N785        C786   1.357   1_655  A
C786        N787   1.356       .  A
C786        C790   1.462       .  S
N787        C788   1.357       .  A
C788        N789   1.362   1_455  A
C788        C810   1.467       .  S
C790        N808   1.348   1_455  A
N791        N808   1.325       .  A
N791       Co998   2.086   1_554  S
C792        N817   1.342       .  A
C792        C830   1.453       .  S
C792        H837   1.080       .  S
H793        C834   1.083       .  S
C794        N818   1.346       .  A
C794        C798   1.462       .  S
C794        H823   1.080       .  S
Co795       N898   2.074       .  S
Co795       N888   2.090       .  S
Co795       N835   2.085       .  S
Co795       N811   2.085       .  S
N796        C834   1.347       .  A
N796       Co967   2.108   1_554  S
Co797       N881   2.099       .  S
Co797       N885   2.093       .  S
Co797       N817   2.086       .  S
Co797       N804   2.091       .  S
N799        N829   1.324       .  A
N799      Co1002   2.087   1_554  S
N800        N836   1.326       .  A
N800       Co967   2.087   1_554  S
N801        N811   1.325       .  A
H802        C827   1.082       .  S
N803        N824   1.324       .  A
N803       Co965   2.081       .  S
N804        N809   1.325       .  A
C805        C833   1.459       .  S
N806        C821   1.339       .  A
N806       Co998   2.078   1_554  S
C807        N835   1.340       .  A
C807        H841   1.082       .  S
C810        N831   1.350   1_455  A
N812        C838   1.344       .  A
N812       Co828   2.094       .  S
N813        C827   1.339       .  A
N813       Co965   2.078       .  S
N814        N842   1.324       .  A
N814       Co832   2.083       .  S
H815        C838   1.083       .  S
H816        C833   1.081       .  S
N818      Co1002   2.105   1_554  S
N819        N831   1.327       .  A
N819       Co828   2.088       .  S
C820        C834   1.463       .  S
C821        H825   1.082       .  S
N822        C833   1.345       .  A
N822       Co832   2.096       .  S
C826        N842   1.347       .  A
Co828       N876   2.087       .  S
Co828       N891   2.084       .  S
N829        C840   1.348       .  A
Co832       N884   2.088       .  S
Co832       N903   2.089       .  S
Co832      Cl839   2.456       .  S
C843        C844   1.345       .  D
C843        H845   1.087       .  S
C847        C848   1.342       .  D
C848        H850   1.085       .  S
C851        N852   1.356       .  A
C851        N856   1.362       .  A
C851        C932   1.476       .  S
C853        N854   1.356       .  A
C853        C915   1.460       .  S
N854        C855   1.357       .  A
C855        C905   1.468       .  S
C857        N858   1.357       .  A
C857        N862   1.362       .  A
C857        C933   1.477       .  S
C859        N860   1.357       .  A
C859        C925   1.462       .  S
N860        C861   1.358       .  A
C861        C911   1.468       .  S
C863        N864   1.356       .  A
C863        N868   1.362       .  A
C863        C928   1.477       .  S
N864        C865   1.355       .  A
C865        N866   1.355       .  A
C865        C890   1.455       .  S
N866        C867   1.356       .  A
C867        N868   1.360       .  A
C867        C883   1.461       .  S
C869        N870   1.357       .  A
C869        N874   1.363       .  A
C869        C929   1.478       .  S
N870        C871   1.356       .  A
C871        N872   1.358       .  A
C871        C875   1.461       .  S
N872        C873   1.358       .  A
C873        N874   1.360       .  A
C873        C895   1.467       .  S
C875        N893   1.347       .  A
N876        N893   1.325       .  A
C877        N902   1.344       .  A
C877        C915   1.460       .  S
C877        H922   1.083       .  S
H878        C919   1.082       .  S
C879        N903   1.342       .  A
C879        C883   1.456       .  S
C879        H908   1.082       .  S
Co880       N983   2.098       .  S
Co880       N973   2.098       .  S
Co880       N920   2.103       .  S
Co880       N896   2.084       .  S
N881        C919   1.343       .  A
Co882       N966   2.092       .  S
Co882       N970   2.075       .  S
Co882       N902   2.093       .  S
Co882       N889   2.072       .  S
N884        N914   1.326       .  A
N885        N921   1.327       .  A
N886        N896   1.324       .  A
H887        C912   1.082       .  S
N888        N909   1.326       .  A
N889        N894   1.321       .  A
C890        C918   1.454       .  S
N891        C906   1.340       .  A
C892        N920   1.346       .  A
C892        H926   1.081       .  S
C895        N916   1.349       .  A
N897        C923   1.344       .  A
N897       Co913   2.096       .  S
N898        C912   1.338       .  A
N899        N927   1.325       .  A
N899       Co917   2.084       .  S
H900        C923   1.083       .  S
H901        C918   1.083       .  S
N904        N916   1.326       .  A
N904       Co913   2.090       .  S
C905        C919   1.459       .  S
C906        H910   1.079       .  S
N907        C918   1.341       .  A
N907       Co917   2.083       .  S
C911        N927   1.347       .  A
Co913       N961   2.091       .  S
Co913       N976   2.094       .  S
N914        C925   1.349       .  A
Co917       N969   2.072       .  S
Co917       N988   2.093       .  S
Co917      Cl924   2.454       .  S
C928        C929   1.342       .  D
C928        H930   1.088       .  S
C932        C933   1.342       .  D
C933        H935   1.085       .  S
C936        N937   1.356       .  A
C936        N941   1.364       .  A
C936       C1017   1.478       .  S
C938        N939   1.356       .  A
C938       C1000   1.457       .  S
N939        C940   1.356       .  A
C940        C990   1.466       .  S
C942        N943   1.356   1_545  A
C942        N947   1.364       .  A
C942       C1018   1.478       .  S
C944        N945   1.358       .  A
C944       C1010   1.461       .  S
N945        C946   1.359       .  A
C946        C996   1.468       .  S
C948        N949   1.364       .  A
C948        N953   1.357       .  A
C948       C1013   1.481       .  S
N949        C950   1.363       .  A
C950        N951   1.358       .  A
C950        C975   1.469       .  S
N951        C952   1.357       .  A
C952        N953   1.355       .  A
C952        C968   1.461       .  S
C954        N955   1.364       .  A
C954        N959   1.358       .  A
C954       C1014   1.483       .  S
N955        C956   1.360       .  A
C956        N957   1.356   1_655  A
C956        C960   1.463       .  S
N957        C958   1.355   1_455  A
C958        N959   1.357       .  A
C958        C980   1.459       .  S
C960        N978   1.350       .  A
N961        N978   1.326       .  A
C962        N987   1.341       .  A
C962       C1000   1.455       .  S
C962       H1007   1.082       .  S
H963       C1004   1.082       .  S
C964        N988   1.344       .  A
C964        C968   1.458       .  S
C964        H993   1.081       .  S
Co965      N1005   2.071   1_554  S
Co965       N981   2.078   1_554  S
N966       C1004   1.343       .  A
Co967       N987   2.092       .  S
Co967       N974   2.108       .  S
N969        N999   1.322       .  A
N970       N1006   1.322       .  A
N971        N981   1.325       .  A
H972        C997   1.084       .  S
N973        N994   1.327       .  A
N974        N979   1.330       .  A
C975       C1003   1.459       .  S
N976        C991   1.344       .  A
C977       N1005   1.338       .  A
C977       H1011   1.081       .  S
C980       N1001   1.347       .  A
N982       C1008   1.339       .  A
N982       Co998   2.082       .  S
N983        C997   1.345       .  A
N984       N1012   1.328       .  A
N984      Co1002   2.101       .  S
H985       C1008   1.081       .  S
H986       C1003   1.081       .  S
N989       N1001   1.324       .  A
N989       Co998   2.080       .  S
C990       C1004   1.459       .  S
C991        H995   1.082       .  S
N992       C1003   1.343       .  A
N992      Co1002   2.094       .  S
C996       N1012   1.352       .  A
N999       C1010   1.343       .  A
Co1002    Cl1009   2.457       .  S
C1013      C1014   1.343       .  D
C1013      H1015   1.089       .  S
C1017      C1018   1.342       .  D
C1018      H1020   1.086       .  S
