geometry optimzed in LAMMPS
_audit_creation_date              2020-11-30 
_audit_creation_method            'lammps2cif' 
_symmetry_space_group_name_H-M    'P1' 
_symmetry_Int_Tables_number       1 
_symmetry_cell_setting            triclinic 
loop_ 
_symmetry_equiv_pos_as_xyz 
  x,y,z 
_cell_length_a                    35.64673805085375 
_cell_length_b                    35.80150291351284 
_cell_length_c                    25.473353380825408 
_cell_angle_alpha                 90.21245489885054 
_cell_angle_beta                  89.45224700972744 
_cell_angle_gamma                 120.0066296538215 
loop_ 
_atom_site_label 
_atom_site_type_symbol 
_atom_site_fract_x 
_atom_site_fract_y 
_atom_site_fract_z 
_atom_site_charge 
C1          C  0.76463405  0.49307066  0.50004875     0.00760
C2          C  0.73054145  0.50003821  0.00497983     0.00760
C3          C  0.47700896  0.24357049  0.00731246     0.00760
C4          C  0.47913578  0.20680247  0.00199881     0.00760
C5          C  0.72569002  0.20901324  0.00952097     0.00760
C6          C  0.76435457  0.24627431  0.50708961     0.00760
C7          C  0.50729131  0.72091498  0.99904366     0.00760
C8          C  0.51385927  0.76207708  0.00156112     0.00760
C9          C  0.24770765  0.45833411  0.99958004     0.00760
C10         C  0.21116840  0.46111351  0.50328156     0.00760
C11         C  0.21767482  0.71779100  0.49573643     0.00760
C12         C  0.25713520  0.75463785  0.99393737     0.00760
O13         O  0.91552797  0.37888449  0.36536450    -0.75090
O14         O  0.86564485  0.38572262  0.31684591    -0.54000
C15         C  0.87642148  0.36852244  0.35367198     0.78630
O16         O  0.06396140  0.59944468  0.34282019    -0.59690
O17         O  0.11524745  0.58826358  0.30424549    -0.52720
C18         C  0.10357804  0.60981142  0.33424770     0.70650
O19         O  0.91912464  0.52373191  0.34912719    -0.74250
O20         O  0.86639661  0.46613583  0.30584349    -0.54820
C21         C  0.87916187  0.49698711  0.33940523     0.76650
O22         O  0.06108289  0.44572691  0.36134202    -0.59400
O23         O  0.11316384  0.50351616  0.31545272    -0.52520
C24         C  0.10074695  0.47367516  0.35050281     0.73240
Zr25       Zr  0.98911998  0.43074238  0.33614229     2.54710
O26         O  0.99085867  0.44088701  0.43083695    -0.79960
O27         O  0.98676236  0.36175585  0.34302434    -0.93380
Zr28       Zr  0.99170480  0.54231313  0.32190253     2.64680
O29         O  0.99317532  0.54939428  0.41714728    -0.98330
O30         O  0.99067496  0.60926509  0.30997245    -0.80400
O31         O  0.94845573  0.46650731  0.33074185    -0.83750
O32         O  0.03262045  0.50703905  0.33057775    -2.18460
O33         O  0.06261756  0.43893917  0.15686898    -0.67140
O34         O  0.11518948  0.49822889  0.19835030    -0.51710
C35         C  0.10255143  0.46650330  0.16604026     0.71630
O36         O  0.91937642  0.51447720  0.13990652    -0.60050
O37         O  0.86768840  0.45851116  0.18857466    -0.52030
C38         C  0.87972410  0.48685397  0.15182799     0.73430
O39         O  0.06632578  0.58405443  0.13782217    -0.71450
O40         O  0.11642595  0.57840091  0.18751429    -0.50120
C41         C  0.10551384  0.59460304  0.14966727     0.74810
O42         O  0.91696587  0.36967134  0.15474865    -0.66780
O43         O  0.86621649  0.37807943  0.19960135    -0.53970
C44         C  0.87746921  0.35893558  0.16549188     0.73190
Zr45       Zr  0.98982279  0.42185090  0.18234410     2.77540
O46         O  0.99001285  0.41187742  0.08769598    -0.97530
O47         O  0.98680284  0.35358951  0.19969694    -0.78350
Zr48       Zr  0.99234463  0.53357325  0.16810134     2.70070
O49         O  0.99186331  0.52858945  0.07274652    -0.79590
O50         O  0.99406911  0.60240710  0.16747027    -0.98680
Zr51       Zr  0.90698043  0.44180387  0.25266442     2.21500
Zr52       Zr  0.07496721  0.52280935  0.25209314     2.11130
O53         O  0.03285508  0.49768581  0.17399705    -2.47360
O54         O  0.94913733  0.45737377  0.17414209    -0.79390
O55         O  0.03228047  0.44619170  0.25908502    -0.71580
O56         O  0.94937642  0.51838138  0.24519068    -2.32540
O57         O  0.94679042  0.40475342  0.25933705    -2.28750
O58         O  0.03485054  0.55946774  0.24487908    -0.73340
H59         H  0.05098876  0.51791872  0.36099672     0.78660
H60         H  0.93112470  0.53112805  0.24287656     0.79740
H61         H  0.05120604  0.50445790  0.14326447     0.81970
H62         H  0.92762855  0.37394032  0.26166433     0.79580
H63         H  0.96374677  0.60100616  0.29046127     0.42610
H64         H  0.02028300  0.62212772  0.18757173     0.41580
H65         H  0.99897609  0.50566276  0.06528185     0.41260
H66         H  0.01435610  0.43930542  0.07417033     0.39190
H67         H  0.00946691  0.36061364  0.22627782     0.42320
H68         H  0.96109242  0.34133328  0.32258012     0.37110
H69         H  0.97325403  0.45485077  0.43710045     0.43230
H70         H  0.01763389  0.54572637  0.42847485     0.39640
H71         H  0.99974158  0.39056246  0.08293268     0.44560
H72         H  0.97852515  0.35284387  0.38004331     0.43280
H73         H  0.00312083  0.58025255  0.42349341     0.43420
H74         H  0.00134844  0.61257710  0.13070553     0.43780
O75         O  0.44846086  0.36442687  0.15843115    -0.75090
O76         O  0.50798443  0.37298470  0.20135625    -0.54000
C77         C  0.47577980  0.35223486  0.16981476     0.78630
O78         O  0.52512411  0.58611244  0.14174606    -0.59690
O79         O  0.46779734  0.58119603  0.18808553    -0.52720
C80         C  0.49740579  0.59821423  0.15230454     0.70650
O81         O  0.60112113  0.51754139  0.14784160    -0.74250
O82         O  0.59396946  0.46005532  0.19476631    -0.54820
C83         C  0.61307476  0.49028234  0.16034177     0.76650
O84         O  0.37932818  0.43920415  0.14648321    -0.59400
O85         O  0.38747485  0.49969614  0.18762397    -0.52520
C86         C  0.36942756  0.46877130  0.15417946     0.73240
Zr87       Zr  0.43222164  0.42112015  0.17944996     2.54710
O88         O  0.42664685  0.40942545  0.08497054    -0.79960
O89         O  0.36219688  0.35806842  0.19898560    -0.93380
Zr90       Zr  0.54308195  0.53209856  0.17006843     2.64680
O91         O  0.53715497  0.52166059  0.07529815    -0.98330
O92         O  0.61014674  0.60096028  0.16277727    -0.80400
O93         O  0.50909466  0.45570875  0.17407376    -0.83750
O94         O  0.46656259  0.49721211  0.17212550    -2.18460
O95         O  0.37880986  0.44386733  0.35272553    -0.67140
O96         O  0.38297267  0.49927605  0.30453178    -0.51710
C97         C  0.36492728  0.46949594  0.33956053     0.71630
O98         O  0.59920349  0.52323944  0.35680682    -0.60050
O99         O  0.59316379  0.46403593  0.31430816    -0.52030
C100        C  0.61039063  0.49477298  0.34832551     0.73430
O101        O  0.52668467  0.59466033  0.34746076    -0.71450
O102        O  0.46551497  0.58348554  0.30593262    -0.50120
C103        C  0.49704772  0.60425199  0.33800765     0.74810
O104        O  0.45570590  0.37500698  0.36250897    -0.66780
O105        O  0.51411939  0.38164134  0.31671999    -0.53970
C106        C  0.48443572  0.36407217  0.35230214     0.73190
Zr107      Zr  0.43658913  0.42846927  0.33329520     2.77540
O108        O  0.44186129  0.43768316  0.42825335    -0.97530
O109        O  0.36984691  0.35929659  0.34014053    -0.78350
Zr110      Zr  0.54599466  0.54026480  0.32386450     2.70070
O111        O  0.55042770  0.54973806  0.41871696    -0.79590
O112        O  0.61487598  0.60561881  0.30764646    -0.98680
Zr113      Zr  0.53246520  0.43907152  0.25369151     2.21500
Zr114      Zr  0.44658607  0.52168212  0.24905532     2.11130
O115        O  0.46944697  0.50465811  0.32888388    -2.47360
O116        O  0.51312521  0.46405274  0.33065801    -0.79390
O117        O  0.41191044  0.44503369  0.25535227    -0.71580
O118        O  0.56688849  0.51590058  0.24863554    -2.32540
O119        O  0.45527064  0.40318140  0.25732809    -2.28750
O120        O  0.52378927  0.55822724  0.24540862    -0.73340
H121        H  0.45709319  0.50498258  0.14072191     0.78660
H122        H  0.59803884  0.52887217  0.24824330     0.79740
H123        H  0.46040543  0.51483690  0.35892200     0.81970
H124        H  0.44281576  0.37229923  0.25983020     0.79580
H125        H  0.62820382  0.60089457  0.19202699     0.42610
H126        H  0.60752889  0.62357058  0.28529208     0.41580
H127        H  0.52836380  0.52130585  0.43282413     0.41260
H128        H  0.43785874  0.46269710  0.43524773     0.39190
H129        H  0.35142132  0.35979441  0.31162574     0.42320
H130        H  0.36887855  0.33560069  0.21017817     0.37110
H131        H  0.44856981  0.43750284  0.06987839     0.43230
H132        H  0.51126488  0.52343053  0.06555957     0.39640
H133        H  0.41509317  0.41258273  0.44208613     0.44560
H134        H  0.34817226  0.34828919  0.16440346     0.43280
H135        H  0.56186922  0.54833633  0.06074737     0.43420
H136        H  0.62266579  0.62052449  0.34198202     0.43780
O137        O  0.60775101  0.06470673  0.16266920    -0.75090
O138        O  0.59146193  0.11143168  0.20415118    -0.54000
C139        C  0.61471175  0.10284135  0.17286857     0.78630
O140        O  0.38955064  0.90922818  0.13905888    -0.59690
O141        O  0.39632607  0.85806792  0.18394452    -0.52720
C142        C  0.37902292  0.86970227  0.14813245     0.70650
O143        O  0.45549334  0.05484485  0.14524259    -0.74250
O144        O  0.50953608  0.10553500  0.19640996    -0.54820
C145        C  0.48205092  0.09394900  0.15894170     0.76650
O146        O  0.54034903  0.92262270  0.14623695    -0.59400
O147        O  0.48176786  0.86677150  0.18613394    -0.52520
C148        C  0.51319525  0.88231254  0.15226513     0.73240
Zr149      Zr  0.55358096  0.99050062  0.18239950     2.54710
O150        O  0.56372964  0.00338514  0.08837549    -0.79960
O151        O  0.62065466  0.98920108  0.19344144    -0.93380
Zr152      Zr  0.43877538  0.98247054  0.17005408     2.64680
O153        O  0.44626348  0.98680231  0.07476621    -0.98330
O154        O  0.36809680  0.97741096  0.16751559    -0.80400
O155        O  0.51489107  0.02801773  0.17743949    -0.83750
O156        O  0.47783455  0.94513985  0.17188420    -2.18460
O157        O  0.52372595  0.91002324  0.36204896    -0.67140
O158        O  0.47110122  0.85933134  0.30944725    -0.51710
C159        C  0.49771444  0.87077930  0.34806679     0.71630
O160        O  0.44036501  0.04700524  0.35473065    -0.60050
O161        O  0.49910165  0.10087466  0.31291908    -0.52030
C162        C  0.46728144  0.08722674  0.34569173     0.73430
O163        O  0.37215697  0.90152081  0.34165121    -0.71450
O164        O  0.38783137  0.85485578  0.29839535    -0.50120
C165        C  0.36468323  0.86335467  0.32999711     0.74810
O166        O  0.59105689  0.05561810  0.36610237    -0.66780
O167        O  0.58530864  0.10712016  0.32069865    -0.53970
C168        C  0.60264849  0.09528835  0.35625827     0.73190
Zr169      Zr  0.54023402  0.98258715  0.33660616     2.77720
O170        O  0.52848388  0.98136770  0.43109165    -0.97530
O171        O  0.60944893  0.98533254  0.34605516    -0.78350
Zr172      Zr  0.42656152  0.97641271  0.32359216     2.70070
O173        O  0.41644652  0.96962776  0.41844030    -0.79590
O174        O  0.35883679  0.97582937  0.30964457    -0.98680
Zr175      Zr  0.52802158  0.06608625  0.25793452     2.21500
Zr176      Zr  0.45292050  0.89942213  0.24720552     2.11130
O177        O  0.46443870  0.93767369  0.32806099    -2.47360
O178        O  0.50242530  0.02138592  0.33402862    -0.79390
O179        O  0.52934469  0.94417959  0.25668896    -0.71580
O180        O  0.45133517  0.02186220  0.24914397    -2.32540
O181        O  0.56728772  0.02847971  0.26225146    -2.28750
O182        O  0.41310314  0.93681813  0.24436360    -0.73340
H183        H  0.47196987  0.92864659  0.13990702     0.78660
H184        H  0.43751288  0.03916363  0.24797783     0.79740
H185        H  0.45337512  0.91799149  0.35745040     0.81970
H186        H  0.59803127  0.04811747  0.26549833     0.79580
H187        H  0.37111547  0.00154335  0.18963777     0.42610
H188        H  0.34323829  0.95269816  0.28352332     0.41580
H189        H  0.44620381  0.98407365  0.43261904     0.41260
H190        H  0.50781864  0.95083204  0.43981439     0.39190
H191        H  0.61159570  0.96990088  0.31486223     0.42320
H192        H  0.63712512  0.01190938  0.21972090     0.37110
H193        H  0.53746851  0.00371760  0.07679596     0.43230
H194        H  0.45139269  0.96297448  0.06470668     0.39640
H195        H  0.55627002  0.98708225  0.44642914     0.44560
H196        H  0.63670469  0.00088376  0.16003770     0.43280
H197        H  0.41677879  0.97764619  0.06191029     0.43420
H198        H  0.34232637  0.96420242  0.34277589     0.43780
C199        C  0.27816503  0.77440120  0.44271651     0.00040
C200        C  0.26517357  0.79978689  0.41517606    -0.11830
C201        C  0.29116940  0.82717498  0.37477752     0.02280
C202        C  0.32932156  0.82713162  0.35939304    -0.00040
C203        C  0.33758544  0.79587896  0.38054904    -0.11770
C204        C  0.31331058  0.77065207  0.42322798     0.02160
H205        H  0.23608892  0.80003986  0.42718823     0.15140
H206        H  0.36561479  0.79406275  0.36724727     0.15140
C207        C  0.32574470  0.74194923  0.44704280     0.36800
C208        C  0.27850429  0.85554407  0.35062760     0.36700
N209        N  0.33584497  0.71888918  0.96565099    -0.43550
N210        N  0.26800602  0.87807137  0.33139313    -0.43540
C211        C  0.28183341  0.77928674  0.04110749     0.00040
C212        C  0.30761623  0.76661485  0.06863766    -0.11830
C213        C  0.33912309  0.79477185  0.10446142     0.02280
C214        C  0.34432186  0.83616200  0.11433620    -0.00040
C215        C  0.31663317  0.84738005  0.08874919    -0.11770
C216        C  0.28649738  0.82013103  0.05206032     0.02160
H217        H  0.30486406  0.73569166  0.05992928     0.15140
H218        H  0.31920322  0.87841538  0.09630208     0.15140
C219        C  0.26072558  0.83542664  0.02644221     0.36800
C220        C  0.36752973  0.78145448  0.12717377     0.36700
N221        N  0.24009196  0.84827551  0.50720408    -0.43550
N222        N  0.39040610  0.77073860  0.14499995    -0.43540
C223        C  0.19196631  0.69937887  0.44655987     0.00040
C224        C  0.20818202  0.68524055  0.40512306    -0.11830
C225        C  0.18158277  0.66101651  0.36339647     0.02280
C226        C  0.13679125  0.64714643  0.36522361    -0.00040
C227        C  0.12203893  0.66529356  0.40372927    -0.11770
C228        C  0.14911657  0.69133284  0.44365301     0.02160
H229        H  0.24098359  0.69106119  0.40651853     0.15140
H230        H  0.08841488  0.65730096  0.40476442     0.15140
C231        C  0.13132915  0.70782841  0.48244029     0.36800
C232        C  0.20077301  0.64906508  0.32113562     0.36700
N233        N  0.11653818  0.72083225  0.01308696    -0.43550
N234        N  0.21626988  0.63976337  0.28712161    -0.43540
C235        C  0.19844802  0.69016437  0.04383327     0.00040
C236        C  0.18633045  0.64633543  0.03838670    -0.11830
C237        C  0.15677839  0.61485582  0.07299900     0.02280
C238        C  0.14041971  0.62710998  0.11607691    -0.00040
C239        C  0.15482828  0.67086054  0.12439765    -0.11770
C240        C  0.18309929  0.70239557  0.08858547     0.02160
H241        H  0.19733989  0.63613107  0.00428543     0.15140
H242        H  0.14189341  0.68015085  0.15749112     0.15140
C243        C  0.19145932  0.74562256  0.09721394     0.36800
C244        C  0.14057624  0.56995648  0.06063014     0.36700
N245        N  0.19624289  0.77932073  0.10687484    -0.43550
N246        N  0.12705199  0.53404131  0.04997536    -0.43540
C247        C  0.32623232  0.46402019  0.36915993     0.00040
C248        C  0.30127278  0.42500903  0.39649438    -0.11830
C249        C  0.27200985  0.42111405  0.43567725     0.02280
C250        C  0.26632400  0.45635955  0.44769456    -0.00040
C251        C  0.28682809  0.49347025  0.41604054    -0.11770
C252        C  0.31656109  0.49755946  0.37671579     0.02160
H253        H  0.30654608  0.39804633  0.38967517     0.15140
H254        H  0.28239783  0.52066308  0.42498734     0.15140
C255        C  0.33818325  0.53736400  0.34735621     0.36800
C256        C  0.25041979  0.38139234  0.46522430     0.36700
N257        N  0.35498697  0.56916273  0.32352549    -0.43550
N258        N  0.23340163  0.34920345  0.48824470    -0.43540
C259        C  0.27546879  0.46321322  0.04570319     0.00040
C260        C  0.31900090  0.49630829  0.04254865    -0.11830
C261        C  0.34988056  0.49787306  0.07698499     0.02280
C262        C  0.33690833  0.46869248  0.11914989    -0.00040
C263        C  0.29336917  0.43640677  0.12399138    -0.11770
C264        C  0.26278999  0.43260420  0.08683936     0.02160
H265        H  0.32970386  0.51920801  0.01038210     0.15140
H266        H  0.28380919  0.41268256  0.15512622     0.15140
C267        C  0.22048345  0.39457313  0.08916917     0.36800
C268        C  0.39507592  0.52549417  0.06374618     0.36700
N269        N  0.18715343  0.36326250  0.09173993    -0.43550
N270        N  0.43112855  0.54657856  0.05175115    -0.43540
C271        C  0.13414303  0.47201898  0.38269211     0.00040
C272        C  0.13267796  0.43242244  0.38998872    -0.11830
C273        C  0.15958858  0.42841935  0.42668534     0.02280
C274        C  0.18887707  0.46467148  0.45615136    -0.00040
C275        C  0.19164660  0.50449322  0.44696874    -0.11770
C276        C  0.16414597  0.50823818  0.41149102     0.02160
H277        H  0.10915489  0.40419625  0.36866274     0.15140
H278        H  0.21331673  0.53221080  0.47037326     0.15140
C279        C  0.16301048  0.54780905  0.41157365     0.36800
C280        C  0.15430179  0.38633433  0.43600280     0.36700
N281        N  0.16145613  0.57921181  0.41374177    -0.43550
N282        N  0.14948573  0.35234877  0.44351588    -0.43540
C283        C  0.13551729  0.46236780  0.13409769     0.00040
C284        C  0.17616788  0.49915847  0.12385885    -0.11830
C285        C  0.20366060  0.49872584  0.08420187     0.02280
C286        C  0.19038900  0.46111694  0.05408419    -0.00040
C287        C  0.15147954  0.42385326  0.06677770    -0.11770
C288        C  0.12486442  0.42359416  0.10729377     0.02160
H289        H  0.18526338  0.52911201  0.14422401     0.15140
H290        H  0.14114690  0.39485614  0.04374784     0.15140
C291        C  0.08649175  0.38294623  0.11935647     0.36800
C292        C  0.24358702  0.53795008  0.07247596     0.36700
N293        N  0.05598474  0.35012420  0.12869638    -0.43550
N294        N  0.27556762  0.56938804  0.06289235    -0.43540
C295        C  0.50275452  0.69830096  0.44788857     0.00040
C296        C  0.54054733  0.70339199  0.42391886    -0.11830
C297        C  0.53908024  0.67596094  0.38395364     0.02280
C298        C  0.49898474  0.64054236  0.36885210    -0.00040
C299        C  0.46072849  0.63708798  0.38992851    -0.11770
C300        C  0.46233631  0.66590133  0.42882046     0.02160
H301        H  0.57173781  0.72757140  0.43827786     0.15140
H302        H  0.42965602  0.61035605  0.37849007     0.15140
C303        C  0.42222937  0.66041147  0.45005099     0.36800
C304        C  0.57952200  0.68485183  0.35976101     0.36700
N305        N  0.38993592  0.65595781  0.46676607    -0.43550
N306        N  0.61222709  0.69289814  0.34044350    -0.43540
C307        C  0.50668934  0.69524226  0.04477320     0.00040
C308        C  0.46652968  0.66633258  0.06789376    -0.11830
C309        C  0.46313755  0.63694347  0.10644683     0.02280
C310        C  0.49994622  0.63360895  0.11926651    -0.00040
C311        C  0.54023468  0.66323287  0.09665877    -0.11770
C312        C  0.54400460  0.69435999  0.06062102     0.02160
H313        H  0.43793665  0.66764304  0.05691214     0.15140
H314        H  0.56907824  0.66214277  0.10721459     0.15140
C315        C  0.58654885  0.72533991  0.04122060     0.36800
C316        C  0.42160881  0.61113217  0.13195370     0.36700
N317        N  0.62084618  0.75023708  0.52618946    -0.43550
N318        N  0.38831625  0.59088718  0.15255491    -0.43540
C319        C  0.49747279  0.83655134  0.38071306     0.00040
C320        C  0.53177252  0.82816252  0.37615149    -0.11830
C321        C  0.53703748  0.80207659  0.41305904     0.02280
C322        C  0.50535451  0.78070054  0.45299345    -0.00040
C323        C  0.46983322  0.78756573  0.45546173    -0.11770
C324        C  0.46712925  0.81703707  0.42188814     0.02160
H325        H  0.55664475  0.84520012  0.34653231     0.15140
H326        H  0.44705966  0.77395526  0.48800102     0.15140
C327        C  0.43799374  0.83245578  0.43627190     0.36800
C328        C  0.57858056  0.80439195  0.41420633     0.36700
N329        N  0.41612319  0.84617546  0.44946612    -0.43550
N330        N  0.61268857  0.80796399  0.41480098    -0.43540
C331        C  0.51876955  0.85214803  0.11708601     0.00040
C332        C  0.50350958  0.80971428  0.13340654    -0.11830
C333        C  0.50856270  0.78013391  0.10202141     0.02280
C334        C  0.52568685  0.79167450  0.04984765    -0.00040
C335        C  0.54667495  0.83609884  0.03791999    -0.11770
C336        C  0.54154601  0.86544834  0.06880696     0.02160
H337        H  0.49006674  0.80036429  0.17276244     0.15140
H338        H  0.56394834  0.84771445  0.00101645     0.15140
C339        C  0.55676661  0.90765255  0.04641480     0.36800
C340        C  0.50907859  0.74675311  0.13240652     0.36700
N341        N  0.56894607  0.94081949  0.02662735    -0.43550
N342        N  0.51109930  0.72310357  0.16154361    -0.43540
C343        C  0.78844648  0.26699120  0.05593852     0.00040
C344        C  0.77479154  0.29003616  0.08778307    -0.11830
C345        C  0.80146155  0.31752337  0.12720336     0.02280
C346        C  0.84339026  0.32313036  0.13414690    -0.00040
C347        C  0.85498094  0.29671729  0.10536339    -0.11770
C348        C  0.82795271  0.26884717  0.06665202     0.02160
H349        H  0.74435394  0.28861921  0.07974972     0.15140
H350        H  0.88617491  0.29908696  0.11143441     0.15140
C351        C  0.84224255  0.24358119  0.53736588     0.36800
C352        C  0.78544229  0.34085323  0.15755264     0.36700
N353        N  0.85415015  0.22339529  0.51456121    -0.43550
N354        N  0.77224566  0.35921145  0.18193751    -0.43540
C355        C  0.84147479  0.33507669  0.38629415     0.00040
C356        C  0.83205934  0.29215659  0.38245283    -0.11830
C357        C  0.80352619  0.26075428  0.41823732     0.02280
C358        C  0.78344318  0.27228221  0.45827200    -0.00040
C359        C  0.79058386  0.31464715  0.45904460    -0.11770
C360        C  0.82016722  0.34616888  0.42470442     0.02160
H361        H  0.84869027  0.28365785  0.35300409     0.15140
H362        H  0.77581568  0.32418031  0.48974334     0.15140
C363        C  0.83226604  0.39053303  0.43431507     0.36800
C364        C  0.79837698  0.21827631  0.41476277     0.36700
N365        N  0.84268356  0.42605181  0.44355387    -0.43550
N366        N  0.79536426  0.18469939  0.41051839    -0.43540
C367        C  0.70129062  0.18421353  0.46244830     0.00040
C368        C  0.67881194  0.19899834  0.43179619    -0.11830
C369        C  0.64789519  0.17178299  0.39491638     0.02280
C370        C  0.63867499  0.12856100  0.38886427    -0.00040
C371        C  0.66379790  0.11539361  0.41703083    -0.11770
C372        C  0.69446652  0.14236222  0.45335241     0.02160
H373        H  0.68399114  0.23117938  0.43837278     0.15140
H374        H  0.65891640  0.08319038  0.41168845     0.15140
C375        C  0.71823526  0.12563883  0.48075767     0.36800
C376        C  0.62557289  0.18894477  0.36541793     0.36700
N377        N  0.73712621  0.11152556  0.00159895    -0.43550
N378        N  0.60825298  0.20324999  0.34156281    -0.43540
C379        C  0.65025879  0.13853394  0.14297873     0.00040
C380        C  0.64258887  0.16953131  0.11965104    -0.11830
C381        C  0.66934997  0.19561666  0.07884303     0.02280
C382        C  0.70424252  0.19079175  0.06106972    -0.00040
C383        C  0.71589286  0.16502522  0.08995205    -0.11770
C384        C  0.68887584  0.13837384  0.13019398     0.02160
H385        H  0.61423211  0.17151218  0.13087534     0.15140
H386        H  0.74486119  0.16404139  0.07924733     0.15140
C387        C  0.70099287  0.11051692  0.15685338     0.36800
C388        C  0.66122824  0.22778319  0.05632950     0.36700
N389        N  0.71105249  0.08843679  0.17817615    -0.43550
N390        N  0.65616154  0.25479623  0.03914697    -0.43540
C391        C  0.48343108  0.32945974  0.38528717     0.00040
C392        C  0.44328096  0.29331271  0.39871328    -0.11830
C393        C  0.44073903  0.26244526  0.43465549     0.02280
C394        C  0.47828147  0.26959524  0.46120434    -0.00040
C395        C  0.51817860  0.30549748  0.44764553    -0.11770
C396        C  0.52143445  0.33331214  0.40725851     0.02160
H397        H  0.41391317  0.28906032  0.38081586     0.15140
H398        H  0.54716243  0.31119548  0.46800722     0.15140
C399        C  0.56410515  0.36428931  0.38833828     0.36800
C400        C  0.39941294  0.22424124  0.44421404     0.36700
N401        N  0.59845990  0.38778084  0.37222421    -0.43550
N402        N  0.36634273  0.19344987  0.45174389    -0.43540
C403        C  0.47359634  0.26099922  0.05945991     0.00040
C404        C  0.43528528  0.26136551  0.07060142    -0.11830
C405        C  0.43328987  0.28697386  0.11072630     0.02280
C406        C  0.47048497  0.31311365  0.14127618    -0.00040
C407        C  0.50534861  0.30526281  0.13728496    -0.11770
C408        C  0.50826985  0.28132308  0.09495008     0.02160
H409        H  0.40725583  0.24327932  0.04607245     0.15140
H410        H  0.53215212  0.32106250  0.16420600     0.15140
C411        C  0.54839439  0.28149292  0.08612254     0.36800
C412        C  0.39249092  0.28565946  0.11860619     0.36700
N413        N  0.58077092  0.28203443  0.07897512    -0.43550
N414        N  0.35928085  0.28364938  0.12414424    -0.43540
C415        C  0.47034526  0.18272530  0.45137244     0.00040
C416        C  0.43347782  0.14138140  0.45037680    -0.11830
C417        C  0.42969558  0.11026473  0.41409955     0.02280
C418        C  0.46331246  0.12054882  0.37696831    -0.00040
C419        C  0.49690197  0.16381931  0.37332042    -0.11770
C420        C  0.50108903  0.19470564  0.41025242     0.02160
H421        H  0.40901690  0.13225896  0.48095445     0.15140
H422        H  0.52206884  0.17311393  0.34377038     0.15140
C423        C  0.54006884  0.23626499  0.40783359     0.36800
C424        C  0.39186987  0.06784012  0.41804406     0.36700
N425        N  0.57232314  0.26867514  0.40457228    -0.43550
N426        N  0.36146117  0.03392900  0.42153059    -0.43540
C427        C  0.48329610  0.18365822  0.04819970     0.00040
C428        C  0.44972775  0.16525631  0.08585772    -0.11830
C429        C  0.44933599  0.13705809  0.12424714     0.02280
C430        C  0.48342263  0.12794722  0.12585797    -0.00040
C431        C  0.51758215  0.14748180  0.08987975    -0.11770
C432        C  0.51742101  0.17432461  0.05060135     0.02160
H433        H  0.42265082  0.17095189  0.08341175     0.15140
H434        H  0.54307153  0.13930597  0.09027176     0.15140
C435        C  0.55124345  0.18890566  0.01135642     0.36800
C436        C  0.41319981  0.11676882  0.16041639     0.36700
N437        N  0.57834160  0.19892592  0.98006652    -0.43550
N438        N  0.38424222  0.10041943  0.18944396    -0.43540
C439        C  0.70213133  0.49829739  0.46009868     0.00040
C440        C  0.65693979  0.47112817  0.46657011    -0.11830
C441        C  0.62743142  0.47184064  0.43191619     0.02280
C442        C  0.64217639  0.49503590  0.38490008    -0.00040
C443        C  0.68684989  0.52195971  0.37676560    -0.11770
C444        C  0.71677534  0.52535474  0.41502327     0.02160
H445        H  0.64364381  0.45008001  0.50002705     0.15140
H446        H  0.69813039  0.54226696  0.34208424     0.15140
C447        C  0.76082179  0.55996534  0.40908769     0.36800
C448        C  0.58214836  0.45068720  0.44714341     0.36700
N449        N  0.79566427  0.58857314  0.40320537    -0.43550
N450        N  0.54605736  0.43452432  0.45960867    -0.43540
C451        C  0.71359383  0.50067152  0.05837998     0.00040
C452        C  0.68551312  0.46091712  0.08163113    -0.11830
C453        C  0.65182098  0.45681703  0.11383315     0.02280
C454        C  0.65107082  0.49377103  0.13165860    -0.00040
C455        C  0.68462653  0.53461544  0.11574407    -0.11770
C456        C  0.71505895  0.53817706  0.07792377     0.02160
H457        H  0.68395914  0.43206691  0.06544321     0.15140
H458        H  0.68488701  0.56347523  0.12938067     0.15140
C459        C  0.74582741  0.58011275  0.05732827     0.36800
C460        C  0.61318578  0.41555297  0.11376630     0.36700
N461        N  0.77076380  0.61370636  0.04091278    -0.43550
N462        N  0.58165797  0.38306435  0.10901169    -0.43540
C463        C  0.84559066  0.48725364  0.11982580     0.00040
C464        C  0.81628761  0.44955550  0.09334862    -0.11830
C465        C  0.78714258  0.44994184  0.05716731     0.02280
C466        C  0.78700278  0.48864321  0.04707490    -0.00040
C467        C  0.81417709  0.52556942  0.07649871    -0.11770
C468        C  0.84344872  0.52517278  0.11253145     0.02160
H469        H  0.81763588  0.42026082  0.09900345     0.15140
H470        H  0.81416578  0.55537477  0.06920524     0.15140
C471        C  0.87121041  0.56406667  0.14130924     0.36800
C472        C  0.75835097  0.41033307  0.53033448     0.36700
N473        N  0.89335591  0.59513440  0.16463181    -0.43550
N474        N  0.73534765  0.37808850  0.50966812    -0.43540
C475        C  0.84629565  0.50111863  0.37169046     0.00040
C476        C  0.80265612  0.46749179  0.37204155    -0.11830
C477        C  0.77341155  0.46565626  0.41081005     0.02280
C478        C  0.78797358  0.49769175  0.44990518    -0.00040
C479        C  0.82987331  0.53314505  0.44626689    -0.11770
C480        C  0.85865389  0.53579906  0.40739933     0.02160
H481        H  0.79198456  0.44118579  0.34424325     0.15140
H482        H  0.84065402  0.55869168  0.47522721     0.15140
C483        C  0.90093842  0.57421464  0.40724381     0.36800
C484        C  0.72964644  0.42974554  0.41127507     0.36700
N485        N  0.93463196  0.60515540  0.40784444    -0.43550
N486        N  0.69445951  0.40106444  0.41146837    -0.43540
C487        C  0.76463403  0.49307063  0.00004874     0.00760
C488        C  0.73054146  0.50003822  0.50497984     0.00760
C489        C  0.47700896  0.24357050  0.50731246     0.00760
C490        C  0.47913579  0.20680248  0.50199882     0.00760
C491        C  0.72569002  0.20901323  0.50952108     0.00760
C492        C  0.76435456  0.24627432  0.00708950     0.00760
C493        C  0.50729125  0.72091493  0.49904366     0.00760
C494        C  0.51385921  0.76207702  0.50156116     0.00760
C495        C  0.24770767  0.45833412  0.49958002     0.00760
C496        C  0.21116836  0.46111347  0.00328152     0.00760
C497        C  0.21767506  0.71779075  0.99573651     0.00760
C498        C  0.25713495  0.75463810  0.49393730     0.00760
O499        O  0.91552806  0.37888455  0.86536443    -0.75090
O500        O  0.86564493  0.38572272  0.81684588    -0.54000
C501        C  0.87642156  0.36852252  0.85367193     0.78630
O502        O  0.06396146  0.59944481  0.84282027    -0.59690
O503        O  0.11524750  0.58826371  0.80424553    -0.52720
C504        C  0.10357809  0.60981154  0.83424775     0.70650
O505        O  0.91912471  0.52373198  0.84912726    -0.74250
O506        O  0.86639670  0.46613593  0.80584350    -0.54820
C507        C  0.87916194  0.49698719  0.83940527     0.76650
O508        O  0.06108297  0.44572694  0.86134187    -0.59400
O509        O  0.11316393  0.50351623  0.81545264    -0.52520
C510        C  0.10074703  0.47367519  0.85050267     0.73240
Zr511      Zr  0.98912006  0.43074246  0.83614220     2.54710
O512        O  0.99085880  0.44088708  0.93083687    -0.79960
O513        O  0.98676242  0.36175592  0.84302419    -0.93380
Zr514      Zr  0.99170488  0.54231321  0.82190262     2.64680
O515        O  0.99317542  0.54939424  0.91714738    -0.98330
O516        O  0.99067502  0.60926518  0.80997268    -0.80400
O517        O  0.94845581  0.46650738  0.83074185    -0.83750
O518        O  0.03262055  0.50703914  0.83057774    -2.18460
O519        O  0.06261767  0.43893930  0.65686901    -0.67140
O520        O  0.11518960  0.49822902  0.69835032    -0.51710
C521        C  0.10255154  0.46650340  0.66604031     0.71630
O522        O  0.91937650  0.51447739  0.63990657    -0.60050
O523        O  0.86768849  0.45851131  0.68857467    -0.52030
C524        C  0.87972418  0.48685414  0.65182802     0.73430
O525        O  0.06632585  0.58405488  0.63782247    -0.71450
O526        O  0.11642603  0.57840114  0.68751429    -0.50120
C527        C  0.10551392  0.59460343  0.64966746     0.74810
O528        O  0.91696597  0.36967152  0.65474855    -0.66780
O529        O  0.86621659  0.37807957  0.69960131    -0.53970
C530        C  0.87746931  0.35893574  0.66549182     0.73190
Zr531      Zr  0.98982289  0.42185111  0.68234399     2.77540
O532        O  0.99001303  0.41187777  0.58769585    -0.97530
O533        O  0.98680289  0.35358967  0.69969671    -0.78350
Zr534      Zr  0.99234471  0.53357345  0.66810141     2.70070
O535        O  0.99186354  0.52858967  0.57274659    -0.79590
O536        O  0.99406901  0.60240722  0.66747031    -0.98680
Zr537      Zr  0.90698052  0.44180400  0.75266441     2.21500
Zr538      Zr  0.07496732  0.52280950  0.75209311     2.11130
O539        O  0.03285519  0.49768603  0.67399702    -2.47360
O540        O  0.94913742  0.45737397  0.67414207    -0.79390
O541        O  0.03228056  0.44619185  0.75908492    -0.71580
O542        O  0.94937650  0.51838151  0.74519076    -2.32540
O543        O  0.94679051  0.40475356  0.75933695    -2.28750
O544        O  0.03485062  0.55946787  0.74487915    -0.73340
H545        H  0.05098886  0.51791879  0.86099670     0.78660
H546        H  0.93112477  0.53112819  0.74287667     0.79740
H547        H  0.05120616  0.50445816  0.64326443     0.81970
H548        H  0.92762865  0.37394045  0.76166421     0.79580
H549        H  0.96374688  0.60100628  0.79046139     0.42610
H550        H  0.02028273  0.62212781  0.68757207     0.41580
H551        H  0.99897599  0.50566274  0.56528198     0.41260
H552        H  0.01435637  0.43930574  0.57417028     0.39190
H553        H  0.00946686  0.36061373  0.72627770     0.42320
H554        H  0.96109247  0.34133336  0.82257997     0.37110
H555        H  0.97325411  0.45485078  0.93710041     0.43230
H556        H  0.01763403  0.54572640  0.92847489     0.39640
H557        H  0.99974164  0.39056273  0.58293252     0.44560
H558        H  0.97852523  0.35284393  0.88004316     0.43280
H559        H  0.00312086  0.58025249  0.92349357     0.43420
H560        H  0.00134860  0.61257736  0.63070565     0.43780
O561        O  0.44846084  0.36442686  0.65843117    -0.75090
O562        O  0.50798441  0.37298470  0.70135626    -0.54000
C563        C  0.47577979  0.35223485  0.66981477     0.78630
O564        O  0.52512408  0.58611244  0.64174608    -0.59690
O565        O  0.46779730  0.58119601  0.68808555    -0.52720
C566        C  0.49740575  0.59821421  0.65230456     0.70650
O567        O  0.60112112  0.51754141  0.64784160    -0.74250
O568        O  0.59396946  0.46005534  0.69476630    -0.54820
C569        C  0.61307475  0.49028236  0.66034177     0.76650
O570        O  0.37932817  0.43920414  0.64648322    -0.59400
O571        O  0.38747483  0.49969611  0.68762399    -0.52520
C572        C  0.36942755  0.46877128  0.65417946     0.73240
Zr573      Zr  0.43222163  0.42112014  0.67944998     2.54710
O574        O  0.42664683  0.40942544  0.58497056    -0.79960
O575        O  0.36219687  0.35806842  0.69898563    -0.93380
Zr576      Zr  0.54308193  0.53209856  0.67006843     2.64680
O577        O  0.53715493  0.52166059  0.57529815    -0.98330
O578        O  0.61014671  0.60096028  0.66277727    -0.80400
O579        O  0.50909464  0.45570875  0.67407377    -0.83750
O580        O  0.46656257  0.49721210  0.67212551    -2.18460
O581        O  0.37880985  0.44386731  0.85272556    -0.67140
O582        O  0.38297265  0.49927603  0.80453179    -0.51710
C583        C  0.36492727  0.46949592  0.83956056     0.71630
O584        O  0.59920349  0.52323946  0.85680679    -0.60050
O585        O  0.59316380  0.46403595  0.81430813    -0.52030
C586        C  0.61039065  0.49477301  0.84832548     0.73430
O587        O  0.52668465  0.59466033  0.84746077    -0.71450
O588        O  0.46551494  0.58348552  0.80593264    -0.50120
C589        C  0.49704769  0.60425198  0.83800767     0.74810
O590        O  0.45570590  0.37500699  0.86250899    -0.66780
O591        O  0.51411940  0.38164135  0.81672001    -0.53970
C592        C  0.48443573  0.36407218  0.85230216     0.73190
Zr593      Zr  0.43658912  0.42846926  0.83329521     2.77540
O594        O  0.44186127  0.43768314  0.92825337    -0.97530
O595        O  0.36984691  0.35929658  0.84014052    -0.78350
Zr596      Zr  0.54599464  0.54026480  0.82386450     2.70070
O597        O  0.55042767  0.54973804  0.91871697    -0.79590
O598        O  0.61487596  0.60561883  0.80764648    -0.98680
Zr599      Zr  0.53246519  0.43907153  0.75369151     2.21500
Zr600      Zr  0.44658604  0.52168210  0.74905533     2.11130
O601        O  0.46944696  0.50465811  0.82888389    -2.47360
O602        O  0.51312520  0.46405275  0.83065802    -0.79390
O603        O  0.41191043  0.44503368  0.75535228    -0.71580
O604        O  0.56688848  0.51590059  0.74863554    -2.32540
O605        O  0.45527063  0.40318139  0.75732810    -2.28750
O606        O  0.52378925  0.55822723  0.74540863    -0.73340
H607        H  0.45709316  0.50498257  0.64072192     0.78660
H608        H  0.59803883  0.52887218  0.74824330     0.79740
H609        H  0.46040541  0.51483689  0.85892201     0.81970
H610        H  0.44281576  0.37229923  0.75983021     0.79580
H611        H  0.62820380  0.60089458  0.69202699     0.42610
H612        H  0.60752887  0.62357057  0.78529205     0.41580
H613        H  0.52836373  0.52130584  0.93282412     0.41260
H614        H  0.43785873  0.46269709  0.93524775     0.39190
H615        H  0.35142131  0.35979442  0.81162576     0.42320
H616        H  0.36887854  0.33560068  0.71017817     0.37110
H617        H  0.44856976  0.43750284  0.56987840     0.43230
H618        H  0.51126484  0.52343053  0.56555958     0.39640
H619        H  0.41509315  0.41258271  0.94208614     0.44560
H620        H  0.34817224  0.34828919  0.66440349     0.43280
H621        H  0.56186918  0.54833633  0.56074737     0.43420
H622        H  0.62266573  0.62052453  0.84198204     0.43780
O623        O  0.60775096  0.06470669  0.66266916    -0.75090
O624        O  0.59146191  0.11143164  0.70415121    -0.54000
C625        C  0.61471172  0.10284132  0.67286859     0.78630
O626        O  0.38955043  0.90922820  0.63905902    -0.59690
O627        O  0.39632586  0.85806791  0.68394457    -0.52720
C628        C  0.37902266  0.86970228  0.64813258     0.70650
O629        O  0.45549330  0.05484487  0.64524262    -0.74250
O630        O  0.50953607  0.10553499  0.69640997    -0.54820
C631        C  0.48205090  0.09394902  0.65894171     0.76650
O632        O  0.54034896  0.92262267  0.64623688    -0.59400
O633        O  0.48176776  0.86677148  0.68613383    -0.52520
C634        C  0.51319517  0.88231251  0.65226505     0.73240
Zr635      Zr  0.55358087  0.99050058  0.68239940     2.54710
O636        O  0.56372944  0.00338504  0.58837538    -0.79960
O637        O  0.62065457  0.98920103  0.69344125    -0.93380
Zr638      Zr  0.43877532  0.98247055  0.67005409     2.64680
O639        O  0.44626343  0.98680225  0.57476621    -0.98330
O640        O  0.36809679  0.97741109  0.66751553    -0.80400
O641        O  0.51489101  0.02801772  0.67743946    -0.83750
O642        O  0.47783445  0.94513983  0.67188414    -2.18460
O643        O  0.52372594  0.91002319  0.86204884    -0.67140
O644        O  0.47110116  0.85933130  0.80944717    -0.51710
C645        C  0.49771441  0.87077925  0.84806669     0.71630
O646        O  0.44036501  0.04700522  0.85473068    -0.60050
O647        O  0.49910164  0.10087463  0.81291908    -0.52030
C648        C  0.46728143  0.08722672  0.84569175     0.73430
O649        O  0.37215700  0.90152078  0.84165131    -0.71450
O650        O  0.38783135  0.85485575  0.79839535    -0.50120
C651        C  0.36468325  0.86335464  0.82999717     0.74810
O652        O  0.59105691  0.05561806  0.86610228    -0.66780
O653        O  0.58530861  0.10712012  0.82069861    -0.53970
C654        C  0.60264849  0.09528831  0.85625820     0.73190
Zr655      Zr  0.54023400  0.98258710  0.83660608     2.77720
O656        O  0.52848381  0.98136767  0.93109156    -0.97530
O657        O  0.60944889  0.98533247  0.84605512    -0.78350
Zr658      Zr  0.42656150  0.97641269  0.82359217     2.70070
O659        O  0.41644649  0.96962776  0.91844032    -0.79590
O660        O  0.35883677  0.97582933  0.80964455    -0.98680
Zr661      Zr  0.52802154  0.06608622  0.75793451     2.21500
Zr662      Zr  0.45292043  0.89942210  0.74720546     2.11130
O663        O  0.46443867  0.93767366  0.82806094    -2.47360
O664        O  0.50242529  0.02138588  0.83402860    -0.79390
O665        O  0.52934462  0.94417955  0.75668887    -0.71580
O666        O  0.45133513  0.02186219  0.74914399    -2.32540
O667        O  0.56728767  0.02847966  0.76225138    -2.28750
O668        O  0.41310309  0.93681813  0.74436360    -0.73340
H669        H  0.47196975  0.92864656  0.63990697     0.78660
H670        H  0.43751285  0.03916362  0.74797788     0.79740
H671        H  0.45337510  0.91799145  0.85745035     0.81970
H672        H  0.59803123  0.04811741  0.76549824     0.79580
H673        H  0.37111542  0.00154335  0.68963793     0.42610
H674        H  0.34323822  0.95269802  0.78352341     0.41580
H675        H  0.44620378  0.98407360  0.93261906     0.41260
H676        H  0.50781878  0.95083196  0.93981436     0.39190
H677        H  0.61159570  0.96990089  0.81486214     0.42320
H678        H  0.63712503  0.01190929  0.71972075     0.37110
H679        H  0.53746824  0.00371738  0.57679587     0.43230
H680        H  0.45139245  0.96297429  0.56470671     0.39640
H681        H  0.55627004  0.98708250  0.94642907     0.44560
H682        H  0.63670460  0.00088376  0.66003751     0.43280
H683        H  0.41677878  0.97764630  0.56191029     0.43420
H684        H  0.34232639  0.96420250  0.84277592     0.43780
C685        C  0.27816521  0.77440102  0.94271658     0.00040
C686        C  0.26517373  0.79978679  0.91517633    -0.11830
C687        C  0.29116952  0.82717495  0.87477782     0.02280
C688        C  0.32932162  0.82713157  0.85939314    -0.00040
C689        C  0.33758550  0.79587884  0.88054892    -0.11770
C690        C  0.31331070  0.77065189  0.92322784     0.02160
H691        H  0.23608910  0.80003975  0.92718863     0.15140
H692        H  0.36561481  0.79406262  0.86724699     0.15140
C693        C  0.32574480  0.74194895  0.94704243     0.36800
C694        C  0.27850440  0.85554414  0.85062816     0.36700
N695        N  0.33584488  0.71888954  0.46565157    -0.43550
N696        N  0.26800613  0.87807150  0.83139390    -0.43540
C697        C  0.28183311  0.77928696  0.54110747     0.00040
C698        C  0.30761565  0.76661486  0.56863789    -0.11830
C699        C  0.33912248  0.79477177  0.60446175     0.02280
C700        C  0.34432151  0.83616205  0.61433636    -0.00040
C701        C  0.31663302  0.84738028  0.58874916    -0.11770
C702        C  0.28649726  0.82013134  0.55206020     0.02160
H703        H  0.30486330  0.73569158  0.55992964     0.15140
H704        H  0.31920324  0.87841569  0.59630192     0.15140
C705        C  0.26072578  0.83542718  0.52644180     0.36800
C706        C  0.36752882  0.78145415  0.62717441     0.36700
N707        N  0.24009148  0.84827475  0.00720475    -0.43550
N708        N  0.39040494  0.77073805  0.64500085    -0.43540
C709        C  0.19196650  0.69937878  0.94655995     0.00040
C710        C  0.20818215  0.68524058  0.90512294    -0.11830
C711        C  0.18158284  0.66101666  0.86339634     0.02280
C712        C  0.13679132  0.64714653  0.86522367    -0.00040
C713        C  0.12203904  0.66529355  0.90372953    -0.11770
C714        C  0.14911675  0.69133275  0.94365327     0.02160
H715        H  0.24098372  0.69106121  0.90651827     0.15140
H716        H  0.08841498  0.65730090  0.90476484     0.15140
C717        C  0.13132941  0.70782821  0.98244080     0.36800
C718        C  0.20077304  0.64906538  0.82113529     0.36700
N719        N  0.11653780  0.72083250  0.51308619    -0.43550
N720        N  0.21626987  0.63976378  0.78712111    -0.43540
C721        C  0.19844783  0.69016476  0.54383327     0.00040
C722        C  0.18633074  0.64633593  0.53838712    -0.11830
C723        C  0.15677882  0.61485634  0.57299955     0.02280
C724        C  0.14041975  0.62711046  0.61607713    -0.00040
C725        C  0.15482781  0.67086097  0.62439740    -0.11770
C726        C  0.18309874  0.70239596  0.58858512     0.02160
H727        H  0.19734044  0.63613159  0.50428605     0.15140
H728        H  0.14189263  0.68015125  0.65749056     0.15140
C729        C  0.19145834  0.74562288  0.59721299     0.36800
C730        C  0.14057711  0.56995703  0.56063102     0.36700
N731        N  0.19624161  0.77932103  0.60687324    -0.43550
N732        N  0.12705320  0.53404187  0.54997646    -0.43540
C733        C  0.32623231  0.46402018  0.86915996     0.00040
C734        C  0.30127276  0.42500902  0.89649440    -0.11830
C735        C  0.27200984  0.42111404  0.93567728     0.02280
C736        C  0.26632401  0.45635955  0.94769460    -0.00040
C737        C  0.28682811  0.49347026  0.91604059    -0.11770
C738        C  0.31656111  0.49755946  0.87671584     0.02160
H739        H  0.30654606  0.39804631  0.88967518     0.15140
H740        H  0.28239787  0.52066309  0.92498741     0.15140
C741        C  0.33818328  0.53736401  0.84735626     0.36800
C742        C  0.25041975  0.38139232  0.96522430     0.36700
N743        N  0.35498700  0.56916273  0.82352555    -0.43550
N744        N  0.23340156  0.34920342  0.98824468    -0.43540
C745        C  0.27546882  0.46321320  0.54570314     0.00040
C746        C  0.31900094  0.49630824  0.54254858    -0.11830
C747        C  0.34988058  0.49787301  0.57698493     0.02280
C748        C  0.33690834  0.46869247  0.61914987    -0.00040
C749        C  0.29336916  0.43640678  0.62399138    -0.11770
C750        C  0.26279000  0.43260421  0.58683934     0.02160
H751        H  0.32970392  0.51920794  0.51038201     0.15140
H752        H  0.28380917  0.41268259  0.65512624     0.15140
C753        C  0.22048345  0.39457315  0.58916916     0.36800
C754        C  0.39507595  0.52549407  0.56374611     0.36700
N755        N  0.18715341  0.36326253  0.59173991    -0.43550
N756        N  0.43112859  0.54657844  0.55175108    -0.43540
C757        C  0.13414311  0.47201897  0.88269195     0.00040
C758        C  0.13267790  0.43242238  0.88998870    -0.11830
C759        C  0.15958850  0.42841927  0.92668535     0.02280
C760        C  0.18887707  0.46467142  0.95615128    -0.00040
C761        C  0.19164674  0.50449320  0.94696850    -0.11770
C762        C  0.16414616  0.50823819  0.91149074     0.02160
H763        H  0.10915476  0.40419618  0.86866281     0.15140
H764        H  0.21331695  0.53221082  0.97037292     0.15140
C765        C  0.16301085  0.54780915  0.91157317     0.36800
C766        C  0.15430163  0.38633423  0.93600291     0.36700
N767        N  0.16145666  0.57921201  0.91374113    -0.43550
N768        N  0.14948552  0.35234866  0.94351607    -0.43540
C769        C  0.13551740  0.46236783  0.63409782     0.00040
C770        C  0.17616806  0.49915844  0.62385909    -0.11830
C771        C  0.20366075  0.49872582  0.58420206     0.02280
C772        C  0.19038906  0.46111695  0.55408426    -0.00040
C773        C  0.15147956  0.42385331  0.56677771    -0.11770
C774        C  0.12486445  0.42359421  0.60729380     0.02160
H775        H  0.18526363  0.52911197  0.64422434     0.15140
H776        H  0.14114687  0.39485622  0.54374778     0.15140
C777        C  0.08649173  0.38294631  0.61935642     0.36800
C778        C  0.24358720  0.53795003  0.57247619     0.36700
N779        N  0.05598468  0.35012429  0.62869627    -0.43550
N780        N  0.27556783  0.56938797  0.56289261    -0.43540
C781        C  0.50275454  0.69830097  0.94788858     0.00040
C782        C  0.54054733  0.70339204  0.92391879    -0.11830
C783        C  0.53908022  0.67596096  0.88395357     0.02280
C784        C  0.49898471  0.64054235  0.86885211    -0.00040
C785        C  0.46072847  0.63708794  0.88992861    -0.11770
C786        C  0.46233631  0.66590130  0.92882056     0.02160
H787        H  0.57173782  0.72757148  0.93827771     0.15140
H788        H  0.42965600  0.61035597  0.87849023     0.15140
C789        C  0.42222938  0.66041140  0.95005117     0.36800
C790        C  0.57952196  0.68485187  0.85976087     0.36700
N791        N  0.38993593  0.65595771  0.96676630    -0.43550
N792        N  0.61222703  0.69289819  0.84044329    -0.43540
C793        C  0.50668927  0.69524220  0.54477319     0.00040
C794        C  0.46652959  0.66633244  0.56789364    -0.11830
C795        C  0.46313746  0.63694335  0.60644673     0.02280
C796        C  0.49994616  0.63360892  0.61926653    -0.00040
C797        C  0.54023464  0.66323291  0.59665889    -0.11770
C798        C  0.54400455  0.69436002  0.56062113     0.02160
H799        H  0.43793654  0.66764283  0.55691194     0.15140
H800        H  0.56907822  0.66214287  0.60721479     0.15140
C801        C  0.58654881  0.72534001  0.54122079     0.36800
C802        C  0.42160871  0.61113201  0.63195356     0.36700
N803        N  0.62084622  0.75023692  0.02618921    -0.43550
N804        N  0.38831613  0.59088699  0.65255473    -0.43540
C805        C  0.49747277  0.83655128  0.88071294     0.00040
C806        C  0.53177253  0.82816251  0.87615141    -0.11830
C807        C  0.53703752  0.80207661  0.91305897     0.02280
C808        C  0.50535454  0.78070053  0.95299337    -0.00040
C809        C  0.46983322  0.78756567  0.95546162    -0.11770
C810        C  0.46712922  0.81703700  0.92188801     0.02160
H811        H  0.55664477  0.84520013  0.84653224     0.15140
H812        H  0.44705965  0.77395519  0.98800090     0.15140
C813        C  0.43799370  0.83245569  0.93627178     0.36800
C814        C  0.57858062  0.80439203  0.91420631     0.36700
N815        N  0.41612315  0.84617536  0.94946602    -0.43550
N816        N  0.61268865  0.80796412  0.91480101    -0.43540
C817        C  0.51876948  0.85214798  0.61708598     0.00040
C818        C  0.50350930  0.80971419  0.63340644    -0.11830
C819        C  0.50856243  0.78013379  0.60202138     0.02280
C820        C  0.52568678  0.79167441  0.54984772    -0.00040
C821        C  0.54667505  0.83609876  0.53792012    -0.11770
C822        C  0.54154615  0.86544830  0.56880704     0.02160
H823        H  0.49006630  0.80036416  0.67276227     0.15140
H824        H  0.56394856  0.84771435  0.50101664     0.15140
C825        C  0.55676700  0.90765258  0.54641496     0.36800
C826        C  0.50907810  0.74675290  0.63240653     0.36700
N827        N  0.56894668  0.94081959  0.52662757    -0.43550
N828        N  0.51109864  0.72310329  0.66154368    -0.43540
C829        C  0.78844651  0.26699121  0.55593860     0.00040
C830        C  0.77479158  0.29003618  0.58778314    -0.11830
C831        C  0.80146162  0.31752346  0.62720338     0.02280
C832        C  0.84339035  0.32313048  0.63414687    -0.00040
C833        C  0.85498104  0.29671742  0.60536337    -0.11770
C834        C  0.82795277  0.26884724  0.56665206     0.02160
H835        H  0.74435396  0.28861920  0.57974983     0.15140
H836        H  0.88617503  0.29908712  0.61143435     0.15140
C837        C  0.84224248  0.24358113  0.03736582     0.36800
C838        C  0.78544237  0.34085332  0.65755265     0.36700
N839        N  0.85415009  0.22339524  0.01456114    -0.43550
N840        N  0.77224574  0.35921155  0.68193750    -0.43540
C841        C  0.84147487  0.33507676  0.88629410     0.00040
C842        C  0.83205940  0.29215665  0.88245277    -0.11830
C843        C  0.80352623  0.26075433  0.91823723     0.02280
C844        C  0.78344320  0.27228224  0.95827191    -0.00040
C845        C  0.79058391  0.31464720  0.95904453    -0.11770
C846        C  0.82016729  0.34616893  0.92470437     0.02160
H847        H  0.84869034  0.28365791  0.85300402     0.15140
H848        H  0.77581572  0.32418035  0.98974327     0.15140
C849        C  0.83226611  0.39053309  0.93431504     0.36800
C850        C  0.79837700  0.21827636  0.91476265     0.36700
N851        N  0.84268363  0.42605186  0.94355386    -0.43550
N852        N  0.79536427  0.18469943  0.91051825    -0.43540
C853        C  0.70129063  0.18421352  0.96244818     0.00040
C854        C  0.67881194  0.19899833  0.93179607    -0.11830
C855        C  0.64789519  0.17178296  0.89491627     0.02280
C856        C  0.63867500  0.12856097  0.88886418    -0.00040
C857        C  0.66379791  0.11539359  0.91703075    -0.11770
C858        C  0.69446655  0.14236222  0.95335231     0.02160
H859        H  0.68399113  0.23117936  0.93837265     0.15140
H860        H  0.65891643  0.08319037  0.91168837     0.15140
C861        C  0.71823530  0.12563885  0.98075757     0.36800
C862        C  0.62557287  0.18894472  0.86541783     0.36700
N863        N  0.73712615  0.11152552  0.50159905    -0.43550
N864        N  0.60825296  0.20324993  0.84156270    -0.43540
C865        C  0.65025878  0.13853392  0.64297879     0.00040
C866        C  0.64258887  0.16953130  0.61965113    -0.11830
C867        C  0.66934999  0.19561667  0.57884314     0.02280
C868        C  0.70424253  0.19079175  0.56106983    -0.00040
C869        C  0.71589286  0.16502521  0.58995215    -0.11770
C870        C  0.68887583  0.13837382  0.63019405     0.02160
H871        H  0.61423212  0.17151217  0.63087542     0.15140
H872        H  0.74486119  0.16404138  0.57924743     0.15140
C873        C  0.70099284  0.11051686  0.65685343     0.36800
C874        C  0.66122826  0.22778320  0.55632961     0.36700
N875        N  0.71105245  0.08843672  0.67817619    -0.43550
N876        N  0.65616155  0.25479624  0.53914709    -0.43540
C877        C  0.48343109  0.32945976  0.88528720     0.00040
C878        C  0.44328098  0.29331272  0.89871327    -0.11830
C879        C  0.44073904  0.26244526  0.93465549     0.02280
C880        C  0.47828148  0.26959525  0.96120435    -0.00040
C881        C  0.51817861  0.30549750  0.94764556    -0.11770
C882        C  0.52143446  0.33331217  0.90725856     0.02160
H883        H  0.41391319  0.28906031  0.88081585     0.15140
H884        H  0.54716244  0.31119550  0.96800726     0.15140
C885        C  0.56410516  0.36428937  0.88833837     0.36800
C886        C  0.39941296  0.22424124  0.94421403     0.36700
N887        N  0.59845992  0.38778093  0.87222433    -0.43550
N888        N  0.36634274  0.19344986  0.95174387    -0.43540
C889        C  0.47359632  0.26099923  0.55945990     0.00040
C890        C  0.43528527  0.26136552  0.57060141    -0.11830
C891        C  0.43328986  0.28697387  0.61072629     0.02280
C892        C  0.47048494  0.31311364  0.64127619    -0.00040
C893        C  0.50534857  0.30526279  0.63728498    -0.11770
C894        C  0.50826982  0.28132307  0.59495010     0.02160
H895        H  0.40725582  0.24327935  0.54607242     0.15140
H896        H  0.53215206  0.32106244  0.66420606     0.15140
C897        C  0.54839436  0.28149290  0.58612258     0.36800
C898        C  0.39249091  0.28565947  0.61860616     0.36700
N899        N  0.58077089  0.28203440  0.57897518    -0.43550
N900        N  0.35928084  0.28364941  0.62414420    -0.43540
C901        C  0.47034525  0.18272529  0.95137243     0.00040
C902        C  0.43347781  0.14138139  0.95037680    -0.11830
C903        C  0.42969557  0.11026471  0.91409956     0.02280
C904        C  0.46331246  0.12054881  0.87696832    -0.00040
C905        C  0.49690197  0.16381930  0.87332042    -0.11770
C906        C  0.50108902  0.19470563  0.91025241     0.02160
H907        H  0.40901690  0.13225895  0.98095444     0.15140
H908        H  0.52206884  0.17311391  0.84377038     0.15140
C909        C  0.54006883  0.23626499  0.90783357     0.36800
C910        C  0.39186987  0.06784010  0.91804407     0.36700
N911        N  0.57232312  0.26867514  0.90457225    -0.43550
N912        N  0.36146117  0.03392898  0.92153060    -0.43540
C913        C  0.48329610  0.18365823  0.54819971     0.00040
C914        C  0.44972774  0.16525632  0.58585772    -0.11830
C915        C  0.44933598  0.13705810  0.62424715     0.02280
C916        C  0.48342263  0.12794724  0.62585799    -0.00040
C917        C  0.51758216  0.14748183  0.58987979    -0.11770
C918        C  0.51742101  0.17432463  0.55060139     0.02160
H919        H  0.42265081  0.17095189  0.58341174     0.15140
H920        H  0.54307154  0.13930601  0.59027181     0.15140
C921        C  0.55124346  0.18890570  0.51135647     0.36800
C922        C  0.41319979  0.11676883  0.66041639     0.36700
N923        N  0.57834163  0.19892597  0.48006658    -0.43550
N924        N  0.38424219  0.10041944  0.68944396    -0.43540
C925        C  0.70213133  0.49829740  0.96009867     0.00040
C926        C  0.65693977  0.47112825  0.96657014    -0.11830
C927        C  0.62743142  0.47184073  0.93191621     0.02280
C928        C  0.64217640  0.49503593  0.88490006    -0.00040
C929        C  0.68684990  0.52195967  0.87676554    -0.11770
C930        C  0.71677535  0.52535471  0.91502321     0.02160
H931        H  0.64364377  0.45008012  0.00002710     0.15140
H932        H  0.69813041  0.54226689  0.84208414     0.15140
C933        C  0.76082181  0.55996527  0.90908758     0.36800
C934        C  0.58214837  0.45068735  0.94714344     0.36700
N935        N  0.79566430  0.58857304  0.90320520    -0.43550
N936        N  0.54605737  0.43452451  0.95960870    -0.43540
C937        C  0.71359384  0.50067156  0.55837998     0.00040
C938        C  0.68551315  0.46091716  0.58163117    -0.11830
C939        C  0.65182102  0.45681706  0.61383320     0.02280
C940        C  0.65107082  0.49377106  0.63165859    -0.00040
C941        C  0.68462650  0.53461547  0.61574401    -0.11770
C942        C  0.71505893  0.53817709  0.57792372     0.02160
H943        H  0.68395920  0.43206696  0.56544329     0.15140
H944        H  0.68488696  0.56347525  0.62938058     0.15140
C945        C  0.74582736  0.58011277  0.55732819     0.36800
C946        C  0.61318587  0.41555297  0.61376646     0.36700
N947        N  0.77076373  0.61370638  0.54091268    -0.43550
N948        N  0.58165810  0.38306430  0.60901197    -0.43540
C949        C  0.84559073  0.48725379  0.61982581     0.00040
C950        C  0.81628769  0.44955562  0.59334867    -0.11830
C951        C  0.78714264  0.44994193  0.55716736     0.02280
C952        C  0.78700283  0.48864329  0.54707491    -0.00040
C953        C  0.81417714  0.52556952  0.57649867    -0.11770
C954        C  0.84344879  0.52517292  0.61253142     0.02160
H955        H  0.81763597  0.42026095  0.59900353     0.15140
H956        H  0.81416582  0.55537486  0.56920517     0.15140
C957        C  0.87121047  0.56406683  0.64130917     0.36800
C958        C  0.75835092  0.41033301  0.03033438     0.36700
N959        N  0.89335597  0.59513458  0.66463171    -0.43550
N960        N  0.73534759  0.37808845  0.00966798    -0.43540
C961        C  0.84629571  0.50111869  0.87169051     0.00040
C962        C  0.80265618  0.46749186  0.87204154    -0.11830
C963        C  0.77341159  0.46565630  0.91081002     0.02280
C964        C  0.78797359  0.49769176  0.94990520    -0.00040
C965        C  0.82987334  0.53314505  0.94626697    -0.11770
C966        C  0.85865394  0.53579909  0.90739943     0.02160
H967        H  0.79198463  0.44118589  0.84424320     0.15140
H968        H  0.84065403  0.55869166  0.97522731     0.15140
C969        C  0.90093848  0.57421466  0.90724397     0.36800
C970        C  0.72964648  0.42974560  0.91127497     0.36700
N971        N  0.93463203  0.60515540  0.90784467    -0.43550
N972        N  0.69445954  0.40106450  0.91146822    -0.43540
loop_ 
_geom_bond_atom_site_label_1 
_geom_bond_atom_site_label_2 
_geom_bond_distance 
_geom_bond_site_symmetry_2 
_ccdc_geom_bond_type 
C1          C478   1.481       .  S
C1          C952   1.497       .  S
C1          C488   1.362       .  D
C2          C451   1.488       .  S
C2          C925   1.515   1_554  S
C2          C487   1.362       .  D
C3          C403   1.495       .  S
C3          C880   1.488   1_554  S
C3            C4   1.362       .  D
C4          C427   1.492       .  S
C4          C901   1.495   1_554  S
C5          C382   1.491       .  S
C5          C853   1.491   1_554  S
C5          C492   1.358       .  D
C6          C358   1.495       .  S
C6          C829   1.487       .  S
C6          C491   1.358       .  D
C7          C307   1.480   1_556  S
C7          C781   1.498       .  S
C7            C8   1.373   1_556  D
C8          C334   1.538       .  S
C8          C808   1.511   1_554  S
C9          C259   1.496   1_556  S
C9          C736   1.491       .  S
C9          C496   1.357   1_556  D
C10         C274   1.486       .  S
C10         C772   1.485       .  S
C10         C495   1.357       .  D
C11         C223   1.502       .  S
C11         C721   1.505       .  S
C11         C498   1.365       .  D
C12         C211   1.494   1_556  S
C12         C685   1.491       .  S
C12         C497   1.365       .  D
O13         Zr25   2.446       .  S
O13          C15   1.288       .  A
O14         Zr51   2.428       .  S
O14          C15   1.286       .  A
C15         C355   1.474       .  S
O16         Zr28   2.419   1_455  S
O16          C18   1.285       .  A
O17         Zr52   2.443       .  S
O17          C18   1.289       .  A
C18         C226   1.496       .  S
O19         Zr28   2.422       .  S
O19          C21   1.284       .  A
O20         Zr51   2.429       .  S
O20          C21   1.287       .  A
C21         C475   1.492       .  S
O22         Zr25   2.436   1_455  S
O22          C24   1.287       .  A
O23         Zr52   2.435       .  S
O23          C24   1.289       .  A
C24         C271   1.477       .  S
Zr25         O26   2.435       .  S
Zr25         O27   2.436       .  S
Zr25         O31   2.371       .  S
Zr25         O32   2.377   1_655  S
Zr25         O55   2.372   1_655  S
Zr25         O57   2.368       .  S
O26          H69   0.990       .  S
O27          H68   0.990       .  S
O27          H72   0.990       .  S
Zr28         O29   2.437       .  S
Zr28         O30   2.436       .  S
Zr28         O32   2.371   1_655  S
Zr28         O31   2.368       .  S
Zr28         O56   2.362       .  S
Zr28         O58   2.366   1_655  S
O29          H70   0.990   1_655  S
O29          H73   0.990   1_655  S
O30          H63   0.990       .  S
O31         Zr51   2.379       .  S
O32         Zr52   2.386       .  S
O32          H59   0.966       .  S
O33         Zr45   2.431   1_455  S
O33          C35   1.286       .  A
O34         Zr52   2.433       .  S
O34          C35   1.288       .  A
C35         C283   1.490       .  S
O36         Zr48   2.450       .  S
O36          C38   1.290       .  A
O37         Zr51   2.424       .  S
O37          C38   1.286       .  A
C38         C463   1.477       .  S
O39         Zr48   2.454   1_455  S
O39          C41   1.290       .  A
O40         Zr52   2.426       .  S
O40          C41   1.286       .  A
C41         C238   1.474       .  S
O42         Zr45   2.429       .  S
O42          C44   1.287       .  A
O43         Zr51   2.417       .  S
O43          C44   1.284       .  A
C44         C346   1.487       .  S
Zr45         O46   2.436       .  S
Zr45         O47   2.434       .  S
Zr45         O53   2.367   1_655  S
Zr45         O54   2.370       .  S
Zr45         O57   2.364       .  S
Zr45         O55   2.366   1_655  S
O46          H66   0.990   1_655  S
O46          H71   0.990       .  S
O47          H67   0.990   1_655  S
Zr48         O49   2.434       .  S
Zr48         O50   2.434       .  S
Zr48         O54   2.374       .  S
Zr48         O53   2.371   1_655  S
Zr48         O58   2.370   1_655  S
Zr48         O56   2.370       .  S
O49          H65   0.990       .  S
O50          H64   0.990   1_655  S
O50          H74   0.990   1_655  S
Zr51         O54   2.384       .  S
Zr51         O56   2.386       .  S
Zr51         O57   2.386       .  S
Zr52         O53   2.390       .  S
Zr52         O55   2.386       .  S
Zr52         O58   2.384       .  S
O53          H61   0.966       .  S
O56          H60   0.966       .  S
O57          H62   0.966       .  S
O75         Zr87   2.430       .  S
O75          C77   1.286       .  A
O76        Zr113   2.464       .  S
O76          C77   1.294       .  A
C77         C406   1.502       .  S
O78         Zr90   2.435       .  S
O78          C80   1.288       .  A
O79        Zr114   2.432       .  S
O79          C80   1.288       .  A
C80         C310   1.488       .  S
O81         Zr90   2.434       .  S
O81          C83   1.287       .  A
O82        Zr113   2.434       .  S
O82          C83   1.289       .  A
C83         C454   1.482       .  S
O84         Zr87   2.436       .  S
O84          C86   1.286       .  A
O85        Zr114   2.430       .  S
O85          C86   1.287       .  A
C86         C262   1.468       .  S
Zr87         O88   2.434       .  S
Zr87         O89   2.434       .  S
Zr87         O93   2.379       .  S
Zr87         O94   2.370       .  S
Zr87        O117   2.361       .  S
Zr87        O119   2.365       .  S
O88         H131   0.990       .  S
O89         H130   0.990       .  S
O89         H134   0.990       .  S
Zr90         O91   2.436       .  S
Zr90         O92   2.435       .  S
Zr90         O94   2.365       .  S
Zr90         O93   2.376       .  S
Zr90        O118   2.365       .  S
Zr90        O120   2.374       .  S
O91         H132   0.990       .  S
O91         H135   0.990       .  S
O92         H125   0.990       .  S
O93        Zr113   2.387       .  S
O94        Zr114   2.387       .  S
O94         H121   0.965       .  S
O95        Zr107   2.430       .  S
O95          C97   1.288       .  A
O96        Zr114   2.431       .  S
O96          C97   1.287       .  A
C97         C247   1.490       .  S
O98        Zr110   2.422       .  S
O98         C100   1.284       .  A
O99        Zr113   2.446       .  S
O99         C100   1.291       .  A
C100        C442   1.470       .  S
O101       Zr110   2.440       .  S
O101        C103   1.289       .  A
O102       Zr114   2.440       .  S
O102        C103   1.289       .  A
C103        C298   1.488       .  S
O104       Zr107   2.451       .  S
O104        C106   1.290       .  A
O105       Zr113   2.427       .  S
O105        C106   1.287       .  A
C106        C391   1.485       .  S
Zr107       O108   2.436       .  S
Zr107       O109   2.434       .  S
Zr107       O115   2.373       .  S
Zr107       O116   2.365       .  S
Zr107       O119   2.361       .  S
Zr107       O117   2.373       .  S
O108        H128   0.990       .  S
O108        H133   0.990       .  S
O109        H129   0.990       .  S
Zr110       O111   2.434       .  S
Zr110       O112   2.432       .  S
Zr110       O116   2.377       .  S
Zr110       O115   2.367       .  S
Zr110       O120   2.363       .  S
Zr110       O118   2.366       .  S
O111        H127   0.990       .  S
O112        H126   0.990       .  S
O112        H136   0.990       .  S
Zr113       O116   2.387       .  S
Zr113       O118   2.390       .  S
Zr113       O119   2.386       .  S
Zr114       O115   2.389       .  S
Zr114       O117   2.386       .  S
Zr114       O120   2.385       .  S
O115        H123   0.966       .  S
O118        H122   0.966       .  S
O119        H124   0.966       .  S
O137       Zr149   2.429   1_545  S
O137        C139   1.286       .  A
O138       Zr175   2.431       .  S
O138        C139   1.287       .  A
C139        C379   1.479       .  S
O140       Zr152   2.447       .  S
O140        C142   1.291       .  A
O141       Zr176   2.432       .  S
O141        C142   1.287       .  A
C142        C214   1.497       .  S
O143       Zr152   2.435   1_545  S
O143        C145   1.286       .  A
O144       Zr175   2.419       .  S
O144        C145   1.285       .  A
C145        C430   1.463       .  S
O146       Zr149   2.413       .  S
O146        C148   1.283       .  A
O147       Zr176   2.450       .  S
O147        C148   1.293       .  A
C148        C331   1.488       .  S
Zr149       O150   2.430   1_565  S
Zr149       O151   2.434       .  S
Zr149       O155   2.362   1_565  S
Zr149       O156   2.372       .  S
Zr149       O179   2.374       .  S
Zr149       O181   2.358   1_565  S
O150        H193   0.990       .  S
O151        H192   0.990   1_565  S
O151        H196   0.990   1_565  S
Zr152       O153   2.436       .  S
Zr152       O154   2.435       .  S
Zr152       O156   2.364       .  S
Zr152       O155   2.375   1_565  S
Zr152       O180   2.369   1_565  S
Zr152       O182   2.363       .  S
O153        H194   0.990       .  S
O153        H197   0.990       .  S
O154        H187   0.990   1_565  S
O155       Zr175   2.375       .  S
O156       Zr176   2.385       .  S
O156        H183   0.965       .  S
O157       Zr169   2.448       .  S
O157        C159   1.288       .  A
O158       Zr176   2.441       .  S
O158        C159   1.289       .  A
C159        C319   1.480       .  S
O160       Zr172   2.451   1_545  S
O160        C162   1.290       .  A
O161       Zr175   2.412       .  S
O161        C162   1.286       .  A
C162        C418   1.496       .  S
O163       Zr172   2.440       .  S
O163        C165   1.289       .  A
O164       Zr176   2.426       .  S
O164        C165   1.288       .  A
C165        C202   1.478       .  S
O166       Zr169   2.441   1_545  S
O166        C168   1.290       .  A
O167       Zr175   2.435       .  S
O167        C168   1.287       .  A
C168        C370   1.497       .  S
Zr169       O170   2.436       .  S
Zr169       O171   2.434       .  S
Zr169       O177   2.366       .  S
Zr169       O178   2.372   1_565  S
Zr169       O181   2.371   1_565  S
Zr169       O179   2.376       .  S
O170        H190   0.990       .  S
O170        H195   0.990       .  S
O171        H191   0.990       .  S
Zr172       O173   2.434       .  S
Zr172       O174   2.433       .  S
Zr172       O178   2.373   1_565  S
Zr172       O177   2.374       .  S
Zr172       O182   2.373       .  S
Zr172       O180   2.362   1_565  S
O173        H189   0.990       .  S
O174        H188   0.990       .  S
O174        H198   0.990       .  S
Zr175       O178   2.383       .  S
Zr175       O180   2.390       .  S
Zr175       O181   2.382       .  S
Zr176       O177   2.391       .  S
Zr176       O179   2.386       .  S
Zr176       O182   2.391       .  S
O177        H185   0.966       .  S
O180        H184   0.966       .  S
O181        H186   0.966       .  S
C199        C498   1.491       .  S
C199        C200   1.402       .  A
C199        C204   1.411       .  A
C200        C201   1.400       .  A
C200        H205   1.083       .  S
C201        C202   1.412       .  A
C201        C208   1.443       .  S
C202        C203   1.402       .  A
C203        C204   1.398       .  A
C203        H206   1.084       .  S
C204        C207   1.444       .  S
C207        N695   1.157       .  T
C208        N210   1.157       .  T
N209        C693   1.157       .  T
C211        C212   1.405       .  A
C211        C216   1.414       .  A
C212        C213   1.411       .  A
C212        H217   1.084       .  S
C213        C214   1.420       .  A
C213        C220   1.443       .  S
C214        C215   1.404       .  A
C215        C216   1.394       .  A
C215        H218   1.085       .  S
C216        C219   1.445       .  S
C219        N707   1.157       .  T
C220        N222   1.157       .  T
N221        C705   1.157       .  T
C223        C224   1.408       .  A
C223        C228   1.408       .  A
C224        C225   1.404       .  A
C224        H229   1.081       .  S
C225        C226   1.416       .  A
C225        C232   1.444       .  S
C226        C227   1.410       .  A
C227        C228   1.395       .  A
C227        H230   1.084       .  S
C228        C231   1.444       .  S
C231        N719   1.157       .  T
C232        N234   1.157       .  T
N233        C717   1.157   1_554  T
C235        C497   1.505   1_554  S
C235        C236   1.411       .  A
C235        C240   1.419       .  A
C236        C237   1.400       .  A
C236        H241   1.085       .  S
C237        C238   1.406       .  A
C237        C244   1.445       .  S
C238        C239   1.399       .  A
C239        C240   1.405       .  A
C239        H242   1.085       .  S
C240        C243   1.439       .  S
C243        N245   1.157       .  T
C244        N246   1.157       .  T
C247        C248   1.407       .  A
C247        C252   1.417       .  A
C248        C249   1.393       .  A
C248        H253   1.085       .  S
C249        C250   1.407       .  A
C249        C256   1.443       .  S
C250        C495   1.491       .  S
C250        C251   1.405       .  A
C251        C252   1.405       .  A
C251        H254   1.084       .  S
C252        C255   1.443       .  S
C255        N257   1.157       .  T
C256        N258   1.157       .  T
C259        C260   1.406       .  A
C259        C264   1.417       .  A
C260        C261   1.393       .  A
C260        H265   1.084       .  S
C261        C262   1.405       .  A
C261        C268   1.444       .  S
C262        C263   1.401       .  A
C263        C264   1.405       .  A
C263        H266   1.085       .  S
C264        C267   1.441       .  S
C267        N269   1.157       .  T
C268        N270   1.157       .  T
C271        C272   1.405       .  A
C271        C276   1.409       .  A
C272        C273   1.404       .  A
C272        H277   1.085       .  S
C273        C274   1.411       .  A
C273        C280   1.442       .  S
C274        C275   1.399       .  A
C275        C276   1.395       .  A
C275        H278   1.084       .  S
C276        C279   1.437       .  S
C279        N281   1.154       .  T
C280        N282   1.157       .  T
C283        C284   1.410       .  A
C283        C288   1.417       .  A
C284        C285   1.406       .  A
C284        H289   1.084       .  S
C285        C286   1.410       .  A
C285        C292   1.443       .  S
C286        C496   1.485       .  S
C286        C287   1.397       .  A
C287        C288   1.392       .  A
C287        H290   1.084       .  S
C288        C291   1.445       .  S
C291        N293   1.157       .  T
C292        N294   1.157       .  T
C295        C493   1.498       .  S
C295        C296   1.400       .  A
C295        C300   1.412       .  A
C296        C297   1.395       .  A
C296        H301   1.078       .  S
C297        C298   1.412       .  A
C297        C304   1.444       .  S
C298        C299   1.407       .  A
C299        C300   1.408       .  A
C299        H302   1.082       .  S
C300        C303   1.442       .  S
C303        N305   1.157       .  T
C304        N306   1.157       .  T
C307        C308   1.405       .  A
C307        C312   1.409       .  A
C308        C309   1.402       .  A
C308        H313   1.083       .  S
C309        C310   1.417       .  A
C309        C316   1.444       .  S
C310        C311   1.409       .  A
C311        C312   1.399       .  A
C311        H314   1.085       .  S
C312        C315   1.443       .  S
C315        N803   1.157       .  T
C316        N318   1.157       .  T
N317        C801   1.157       .  T
C319        C320   1.401       .  A
C319        C324   1.409       .  A
C320        C321   1.406       .  A
C320        H325   1.085       .  S
C321        C322   1.420       .  A
C321        C328   1.442       .  S
C322        C494   1.511       .  S
C322        C323   1.406       .  A
C323        C324   1.401       .  A
C323        H326   1.085       .  S
C324        C327   1.443       .  S
C327        N329   1.157       .  T
C328        N330   1.157       .  T
C331        C332   1.397       .  A
C331        C336   1.413       .  A
C332        C333   1.405       .  A
C332        H337   1.086       .  S
C333        C334   1.430       .  A
C333        C340   1.434       .  S
C334        C335   1.411       .  A
C335        C336   1.393       .  A
C335        H338   1.082       .  S
C336        C339   1.443       .  S
C339        N341   1.156       .  T
C340        N342   1.157       .  T
C343        C492   1.487       .  S
C343        C344   1.402       .  A
C343        C348   1.406       .  A
C344        C345   1.398       .  A
C344        H349   1.082       .  S
C345        C346   1.418       .  A
C345        C352   1.444       .  S
C346        C347   1.408       .  A
C347        C348   1.395       .  A
C347        H350   1.085       .  S
C348        C837   1.443       .  S
C351        C834   1.443       .  S
C351        N353   1.157       .  T
C352        N354   1.157       .  T
C355        C356   1.403       .  A
C355        C360   1.406       .  A
C356        C357   1.406       .  A
C356        H361   1.085       .  S
C357        C358   1.415       .  A
C357        C364   1.440       .  S
C358        C359   1.407       .  A
C359        C360   1.396       .  A
C359        H362   1.084       .  S
C360        C363   1.443       .  S
C363        N365   1.156       .  T
C364        N366   1.157       .  T
C367        C491   1.491       .  S
C367        C368   1.404       .  A
C367        C372   1.411       .  A
C368        C369   1.409       .  A
C368        H373   1.084       .  S
C369        C370   1.420       .  A
C369        C376   1.442       .  S
C370        C371   1.406       .  A
C371        C372   1.393       .  A
C371        H374   1.085       .  S
C372        C375   1.444       .  S
C375        N863   1.157       .  T
C376        N378   1.157       .  T
N377        C861   1.157   1_554  T
C379        C380   1.404       .  A
C379        C384   1.414       .  A
C380        C381   1.400       .  A
C380        H385   1.084       .  S
C381        C382   1.409       .  A
C381        C388   1.442       .  S
C382        C383   1.400       .  A
C383        C384   1.399       .  A
C383        H386   1.083       .  S
C384        C387   1.444       .  S
C387        N389   1.157       .  T
C388        N390   1.157       .  T
C391        C392   1.408       .  A
C391        C396   1.412       .  A
C392        C393   1.405       .  A
C392        H397   1.085       .  S
C393        C394   1.410       .  A
C393        C400   1.442       .  S
C394        C489   1.488       .  S
C394        C395   1.400       .  A
C395        C396   1.398       .  A
C395        H398   1.085       .  S
C396        C399   1.442       .  S
C399        N401   1.157       .  T
C400        N402   1.157       .  T
C403        C404   1.399       .  A
C403        C408   1.411       .  A
C404        C405   1.395       .  A
C404        H409   1.082       .  S
C405        C406   1.419       .  A
C405        C412   1.443       .  S
C406        C407   1.407       .  A
C407        C408   1.410       .  A
C407        H410   1.083       .  S
C408        C411   1.443       .  S
C411        N413   1.157       .  T
C412        N414   1.157       .  T
C415        C490   1.495       .  S
C415        C416   1.405       .  A
C415        C420   1.412       .  A
C416        C417   1.399       .  A
C416        H421   1.085       .  S
C417        C418   1.416       .  A
C417        C424   1.444       .  S
C418        C419   1.409       .  A
C419        C420   1.400       .  A
C419        H422   1.083       .  S
C420        C423   1.442       .  S
C423        N425   1.157       .  T
C424        N426   1.157       .  T
C427        C428   1.407       .  A
C427        C432   1.415       .  A
C428        C429   1.403       .  A
C428        H433   1.084       .  S
C429        C430   1.408       .  A
C429        C436   1.443       .  S
C430        C431   1.394       .  A
C431        C432   1.392       .  A
C431        H434   1.085       .  S
C432        C435   1.441       .  S
C435        N437   1.157   1_554  T
C436        N438   1.157       .  T
C439        C488   1.515       .  S
C439        C440   1.413       .  A
C439        C444   1.421       .  A
C440        C441   1.390       .  A
C440        H445   1.076       .  S
C441        C442   1.400       .  A
C441        C448   1.448       .  S
C442        C443   1.403       .  A
C443        C444   1.411       .  A
C443        H446   1.085       .  S
C444        C447   1.440       .  S
C447        N449   1.157       .  T
C448        N450   1.157       .  T
C451        C452   1.396       .  A
C451        C456   1.407       .  A
C452        C453   1.394       .  A
C452        H457   1.086       .  S
C453        C454   1.410       .  A
C453        C460   1.430       .  S
C454        C455   1.407       .  A
C455        C456   1.401       .  A
C455        H458   1.084       .  S
C456        C459   1.442       .  S
C459        N461   1.157       .  T
C460        N462   1.151       .  T
C463        C464   1.402       .  A
C463        C468   1.410       .  A
C464        C465   1.401       .  A
C464        H469   1.084       .  S
C465        C466   1.413       .  A
C465        C958   1.443       .  S
C466        C487   1.497       .  S
C466        C467   1.405       .  A
C467        C468   1.402       .  A
C467        H470   1.084       .  S
C468        C471   1.444       .  S
C471        N473   1.157       .  T
C472        C951   1.443       .  S
C472        N474   1.157       .  T
C475        C476   1.413       .  A
C475        C480   1.420       .  A
C476        C477   1.407       .  A
C476        H481   1.084       .  S
C477        C478   1.408       .  A
C477        C484   1.442       .  S
C478        C479   1.397       .  A
C479        C480   1.388       .  A
C479        H482   1.085       .  S
C480        C483   1.446       .  S
C483        N485   1.157       .  T
C484        N486   1.157       .  T
C487        C964   1.481   1_554  S
C488        C937   1.488       .  S
C489        C889   1.495       .  S
C489        C490   1.362       .  D
C490        C913   1.492       .  S
C491        C868   1.491       .  S
C492        C844   1.495   1_554  S
C493        C793   1.480       .  S
C493        C494   1.373       .  D
C494        C820   1.538       .  S
C495        C745   1.496       .  S
C496        C760   1.486   1_554  S
C497        C709   1.502       .  S
C498        C697   1.494       .  S
O499       Zr511   2.446       .  S
O499        C501   1.288       .  A
O500       Zr537   2.428       .  S
O500        C501   1.286       .  A
C501        C841   1.474       .  S
O502       Zr514   2.419   1_455  S
O502        C504   1.285       .  A
O503       Zr538   2.443       .  S
O503        C504   1.289       .  A
C504        C712   1.496       .  S
O505       Zr514   2.422       .  S
O505        C507   1.284       .  A
O506       Zr537   2.429       .  S
O506        C507   1.287       .  A
C507        C961   1.492       .  S
O508       Zr511   2.436   1_455  S
O508        C510   1.287       .  A
O509       Zr538   2.435       .  S
O509        C510   1.289       .  A
C510        C757   1.477       .  S
Zr511       O512   2.435       .  S
Zr511       O513   2.436       .  S
Zr511       O517   2.371       .  S
Zr511       O518   2.377   1_655  S
Zr511       O541   2.372   1_655  S
Zr511       O543   2.368       .  S
O512        H555   0.990       .  S
O513        H554   0.990       .  S
O513        H558   0.990       .  S
Zr514       O515   2.437       .  S
Zr514       O516   2.436       .  S
Zr514       O518   2.371   1_655  S
Zr514       O517   2.368       .  S
Zr514       O542   2.362       .  S
Zr514       O544   2.366   1_655  S
O515        H556   0.990   1_655  S
O515        H559   0.990   1_655  S
O516        H549   0.990       .  S
O517       Zr537   2.379       .  S
O518       Zr538   2.386       .  S
O518        H545   0.966       .  S
O519       Zr531   2.431   1_455  S
O519        C521   1.286       .  A
O520       Zr538   2.433       .  S
O520        C521   1.288       .  A
C521        C769   1.490       .  S
O522       Zr534   2.450       .  S
O522        C524   1.290       .  A
O523       Zr537   2.424       .  S
O523        C524   1.286       .  A
C524        C949   1.477       .  S
O525       Zr534   2.454   1_455  S
O525        C527   1.290       .  A
O526       Zr538   2.426       .  S
O526        C527   1.286       .  A
C527        C724   1.474       .  S
O528       Zr531   2.429       .  S
O528        C530   1.287       .  A
O529       Zr537   2.417       .  S
O529        C530   1.284       .  A
C530        C832   1.487       .  S
Zr531       O532   2.436       .  S
Zr531       O533   2.434       .  S
Zr531       O539   2.367   1_655  S
Zr531       O540   2.370       .  S
Zr531       O543   2.364       .  S
Zr531       O541   2.366   1_655  S
O532        H552   0.990   1_655  S
O532        H557   0.990       .  S
O533        H553   0.990   1_655  S
Zr534       O535   2.434       .  S
Zr534       O536   2.434       .  S
Zr534       O540   2.374       .  S
Zr534       O539   2.371   1_655  S
Zr534       O544   2.370   1_655  S
Zr534       O542   2.370       .  S
O535        H551   0.990       .  S
O536        H550   0.990   1_655  S
O536        H560   0.990   1_655  S
Zr537       O540   2.384       .  S
Zr537       O542   2.386       .  S
Zr537       O543   2.386       .  S
Zr538       O539   2.390       .  S
Zr538       O541   2.386       .  S
Zr538       O544   2.384       .  S
O539        H547   0.966       .  S
O542        H546   0.966       .  S
O543        H548   0.966       .  S
O561       Zr573   2.430       .  S
O561        C563   1.286       .  A
O562       Zr599   2.464       .  S
O562        C563   1.294       .  A
C563        C892   1.502       .  S
O564       Zr576   2.435       .  S
O564        C566   1.288       .  A
O565       Zr600   2.432       .  S
O565        C566   1.288       .  A
C566        C796   1.488       .  S
O567       Zr576   2.434       .  S
O567        C569   1.287       .  A
O568       Zr599   2.434       .  S
O568        C569   1.289       .  A
C569        C940   1.482       .  S
O570       Zr573   2.436       .  S
O570        C572   1.286       .  A
O571       Zr600   2.430       .  S
O571        C572   1.287       .  A
C572        C748   1.468       .  S
Zr573       O574   2.434       .  S
Zr573       O575   2.434       .  S
Zr573       O579   2.379       .  S
Zr573       O580   2.370       .  S
Zr573       O603   2.361       .  S
Zr573       O605   2.365       .  S
O574        H617   0.990       .  S
O575        H616   0.990       .  S
O575        H620   0.990       .  S
Zr576       O577   2.436       .  S
Zr576       O578   2.435       .  S
Zr576       O580   2.365       .  S
Zr576       O579   2.376       .  S
Zr576       O604   2.365       .  S
Zr576       O606   2.374       .  S
O577        H618   0.990       .  S
O577        H621   0.990       .  S
O578        H611   0.990       .  S
O579       Zr599   2.387       .  S
O580       Zr600   2.387       .  S
O580        H607   0.965       .  S
O581       Zr593   2.430       .  S
O581        C583   1.288       .  A
O582       Zr600   2.431       .  S
O582        C583   1.287       .  A
C583        C733   1.490       .  S
O584       Zr596   2.422       .  S
O584        C586   1.284       .  A
O585       Zr599   2.446       .  S
O585        C586   1.291       .  A
C586        C928   1.470       .  S
O587       Zr596   2.440       .  S
O587        C589   1.289       .  A
O588       Zr600   2.440       .  S
O588        C589   1.289       .  A
C589        C784   1.488       .  S
O590       Zr593   2.451       .  S
O590        C592   1.290       .  A
O591       Zr599   2.427       .  S
O591        C592   1.287       .  A
C592        C877   1.485       .  S
Zr593       O594   2.436       .  S
Zr593       O595   2.434       .  S
Zr593       O601   2.373       .  S
Zr593       O602   2.365       .  S
Zr593       O605   2.361       .  S
Zr593       O603   2.373       .  S
O594        H614   0.990       .  S
O594        H619   0.990       .  S
O595        H615   0.990       .  S
Zr596       O597   2.434       .  S
Zr596       O598   2.432       .  S
Zr596       O602   2.377       .  S
Zr596       O601   2.367       .  S
Zr596       O606   2.363       .  S
Zr596       O604   2.366       .  S
O597        H613   0.990       .  S
O598        H612   0.990       .  S
O598        H622   0.990       .  S
Zr599       O602   2.387       .  S
Zr599       O604   2.390       .  S
Zr599       O605   2.386       .  S
Zr600       O601   2.389       .  S
Zr600       O603   2.386       .  S
Zr600       O606   2.385       .  S
O601        H609   0.966       .  S
O604        H608   0.966       .  S
O605        H610   0.966       .  S
O623       Zr635   2.429   1_545  S
O623        C625   1.286       .  A
O624       Zr661   2.431       .  S
O624        C625   1.287       .  A
C625        C865   1.479       .  S
O626       Zr638   2.447       .  S
O626        C628   1.291       .  A
O627       Zr662   2.432       .  S
O627        C628   1.287       .  A
C628        C700   1.497       .  S
O629       Zr638   2.435   1_545  S
O629        C631   1.286       .  A
O630       Zr661   2.419       .  S
O630        C631   1.285       .  A
C631        C916   1.463       .  S
O632       Zr635   2.413       .  S
O632        C634   1.283       .  A
O633       Zr662   2.450       .  S
O633        C634   1.293       .  A
C634        C817   1.488       .  S
Zr635       O636   2.430   1_565  S
Zr635       O637   2.434       .  S
Zr635       O641   2.362   1_565  S
Zr635       O642   2.372       .  S
Zr635       O665   2.374       .  S
Zr635       O667   2.358   1_565  S
O636        H679   0.990       .  S
O637        H678   0.990   1_565  S
O637        H682   0.990   1_565  S
Zr638       O639   2.436       .  S
Zr638       O640   2.435       .  S
Zr638       O642   2.364       .  S
Zr638       O641   2.375   1_565  S
Zr638       O666   2.369   1_565  S
Zr638       O668   2.363       .  S
O639        H680   0.990       .  S
O639        H683   0.990       .  S
O640        H673   0.990   1_565  S
O641       Zr661   2.375       .  S
O642       Zr662   2.385       .  S
O642        H669   0.965       .  S
O643       Zr655   2.448       .  S
O643        C645   1.288       .  A
O644       Zr662   2.441       .  S
O644        C645   1.289       .  A
C645        C805   1.480       .  S
O646       Zr658   2.451   1_545  S
O646        C648   1.290       .  A
O647       Zr661   2.412       .  S
O647        C648   1.286       .  A
C648        C904   1.496       .  S
O649       Zr658   2.440       .  S
O649        C651   1.289       .  A
O650       Zr662   2.426       .  S
O650        C651   1.288       .  A
C651        C688   1.478       .  S
O652       Zr655   2.441   1_545  S
O652        C654   1.290       .  A
O653       Zr661   2.435       .  S
O653        C654   1.287       .  A
C654        C856   1.497       .  S
Zr655       O656   2.436       .  S
Zr655       O657   2.434       .  S
Zr655       O663   2.366       .  S
Zr655       O664   2.372   1_565  S
Zr655       O667   2.371   1_565  S
Zr655       O665   2.376       .  S
O656        H676   0.990       .  S
O656        H681   0.990       .  S
O657        H677   0.990       .  S
Zr658       O659   2.434       .  S
Zr658       O660   2.433       .  S
Zr658       O664   2.373   1_565  S
Zr658       O663   2.374       .  S
Zr658       O668   2.373       .  S
Zr658       O666   2.362   1_565  S
O659        H675   0.990       .  S
O660        H674   0.990       .  S
O660        H684   0.990       .  S
Zr661       O664   2.383       .  S
Zr661       O666   2.390       .  S
Zr661       O667   2.382       .  S
Zr662       O663   2.391       .  S
Zr662       O665   2.386       .  S
Zr662       O668   2.391       .  S
O663        H671   0.966       .  S
O666        H670   0.966       .  S
O667        H672   0.966       .  S
C685        C686   1.402       .  A
C685        C690   1.411       .  A
C686        C687   1.400       .  A
C686        H691   1.083       .  S
C687        C688   1.412       .  A
C687        C694   1.443       .  S
C688        C689   1.402       .  A
C689        C690   1.398       .  A
C689        H692   1.084       .  S
C690        C693   1.444       .  S
C694        N696   1.157       .  T
C697        C698   1.405       .  A
C697        C702   1.414       .  A
C698        C699   1.411       .  A
C698        H703   1.084       .  S
C699        C700   1.420       .  A
C699        C706   1.443       .  S
C700        C701   1.404       .  A
C701        C702   1.394       .  A
C701        H704   1.085       .  S
C702        C705   1.445       .  S
C706        N708   1.157       .  T
C709        C710   1.408       .  A
C709        C714   1.408       .  A
C710        C711   1.404       .  A
C710        H715   1.081       .  S
C711        C712   1.416       .  A
C711        C718   1.444       .  S
C712        C713   1.410       .  A
C713        C714   1.395       .  A
C713        H716   1.084       .  S
C714        C717   1.444       .  S
C718        N720   1.157       .  T
C721        C722   1.411       .  A
C721        C726   1.419       .  A
C722        C723   1.400       .  A
C722        H727   1.085       .  S
C723        C724   1.406       .  A
C723        C730   1.445       .  S
C724        C725   1.399       .  A
C725        C726   1.405       .  A
C725        H728   1.085       .  S
C726        C729   1.439       .  S
C729        N731   1.157       .  T
C730        N732   1.157       .  T
C733        C734   1.407       .  A
C733        C738   1.417       .  A
C734        C735   1.393       .  A
C734        H739   1.085       .  S
C735        C736   1.407       .  A
C735        C742   1.443       .  S
C736        C737   1.405       .  A
C737        C738   1.405       .  A
C737        H740   1.084       .  S
C738        C741   1.443       .  S
C741        N743   1.157       .  T
C742        N744   1.157       .  T
C745        C746   1.406       .  A
C745        C750   1.417       .  A
C746        C747   1.393       .  A
C746        H751   1.084       .  S
C747        C748   1.405       .  A
C747        C754   1.444       .  S
C748        C749   1.401       .  A
C749        C750   1.405       .  A
C749        H752   1.085       .  S
C750        C753   1.441       .  S
C753        N755   1.157       .  T
C754        N756   1.157       .  T
C757        C758   1.405       .  A
C757        C762   1.409       .  A
C758        C759   1.404       .  A
C758        H763   1.085       .  S
C759        C760   1.411       .  A
C759        C766   1.442       .  S
C760        C761   1.399       .  A
C761        C762   1.395       .  A
C761        H764   1.084       .  S
C762        C765   1.437       .  S
C765        N767   1.154       .  T
C766        N768   1.157       .  T
C769        C770   1.410       .  A
C769        C774   1.417       .  A
C770        C771   1.406       .  A
C770        H775   1.084       .  S
C771        C772   1.410       .  A
C771        C778   1.443       .  S
C772        C773   1.397       .  A
C773        C774   1.392       .  A
C773        H776   1.084       .  S
C774        C777   1.445       .  S
C777        N779   1.157       .  T
C778        N780   1.157       .  T
C781        C782   1.400       .  A
C781        C786   1.412       .  A
C782        C783   1.395       .  A
C782        H787   1.078       .  S
C783        C784   1.412       .  A
C783        C790   1.444       .  S
C784        C785   1.407       .  A
C785        C786   1.408       .  A
C785        H788   1.082       .  S
C786        C789   1.442       .  S
C789        N791   1.157       .  T
C790        N792   1.157       .  T
C793        C794   1.405       .  A
C793        C798   1.409       .  A
C794        C795   1.402       .  A
C794        H799   1.083       .  S
C795        C796   1.417       .  A
C795        C802   1.444       .  S
C796        C797   1.409       .  A
C797        C798   1.399       .  A
C797        H800   1.085       .  S
C798        C801   1.443       .  S
C802        N804   1.157       .  T
C805        C806   1.401       .  A
C805        C810   1.409       .  A
C806        C807   1.406       .  A
C806        H811   1.085       .  S
C807        C808   1.420       .  A
C807        C814   1.442       .  S
C808        C809   1.406       .  A
C809        C810   1.401       .  A
C809        H812   1.085       .  S
C810        C813   1.443       .  S
C813        N815   1.157       .  T
C814        N816   1.157       .  T
C817        C818   1.397       .  A
C817        C822   1.413       .  A
C818        C819   1.405       .  A
C818        H823   1.086       .  S
C819        C820   1.430       .  A
C819        C826   1.434       .  S
C820        C821   1.411       .  A
C821        C822   1.393       .  A
C821        H824   1.082       .  S
C822        C825   1.443       .  S
C825        N827   1.156       .  T
C826        N828   1.157       .  T
C829        C830   1.402       .  A
C829        C834   1.406       .  A
C830        C831   1.398       .  A
C830        H835   1.082       .  S
C831        C832   1.418       .  A
C831        C838   1.444       .  S
C832        C833   1.408       .  A
C833        C834   1.395       .  A
C833        H836   1.085       .  S
C837        N839   1.157       .  T
C838        N840   1.157       .  T
C841        C842   1.403       .  A
C841        C846   1.406       .  A
C842        C843   1.406       .  A
C842        H847   1.085       .  S
C843        C844   1.415       .  A
C843        C850   1.440       .  S
C844        C845   1.407       .  A
C845        C846   1.396       .  A
C845        H848   1.084       .  S
C846        C849   1.443       .  S
C849        N851   1.156       .  T
C850        N852   1.157       .  T
C853        C854   1.404       .  A
C853        C858   1.411       .  A
C854        C855   1.409       .  A
C854        H859   1.084       .  S
C855        C856   1.420       .  A
C855        C862   1.442       .  S
C856        C857   1.406       .  A
C857        C858   1.393       .  A
C857        H860   1.085       .  S
C858        C861   1.444       .  S
C862        N864   1.157       .  T
C865        C866   1.404       .  A
C865        C870   1.414       .  A
C866        C867   1.400       .  A
C866        H871   1.084       .  S
C867        C868   1.409       .  A
C867        C874   1.442       .  S
C868        C869   1.400       .  A
C869        C870   1.399       .  A
C869        H872   1.083       .  S
C870        C873   1.444       .  S
C873        N875   1.157       .  T
C874        N876   1.157       .  T
C877        C878   1.408       .  A
C877        C882   1.412       .  A
C878        C879   1.405       .  A
C878        H883   1.085       .  S
C879        C880   1.410       .  A
C879        C886   1.442       .  S
C880        C881   1.400       .  A
C881        C882   1.398       .  A
C881        H884   1.085       .  S
C882        C885   1.442       .  S
C885        N887   1.157       .  T
C886        N888   1.157       .  T
C889        C890   1.399       .  A
C889        C894   1.411       .  A
C890        C891   1.395       .  A
C890        H895   1.082       .  S
C891        C892   1.419       .  A
C891        C898   1.443       .  S
C892        C893   1.407       .  A
C893        C894   1.410       .  A
C893        H896   1.083       .  S
C894        C897   1.443       .  S
C897        N899   1.157       .  T
C898        N900   1.157       .  T
C901        C902   1.405       .  A
C901        C906   1.412       .  A
C902        C903   1.399       .  A
C902        H907   1.085       .  S
C903        C904   1.416       .  A
C903        C910   1.444       .  S
C904        C905   1.409       .  A
C905        C906   1.400       .  A
C905        H908   1.083       .  S
C906        C909   1.442       .  S
C909        N911   1.157       .  T
C910        N912   1.157       .  T
C913        C914   1.407       .  A
C913        C918   1.415       .  A
C914        C915   1.403       .  A
C914        H919   1.084       .  S
C915        C916   1.408       .  A
C915        C922   1.443       .  S
C916        C917   1.394       .  A
C917        C918   1.392       .  A
C917        H920   1.085       .  S
C918        C921   1.441       .  S
C921        N923   1.157       .  T
C922        N924   1.157       .  T
C925        C926   1.413       .  A
C925        C930   1.421       .  A
C926        C927   1.390       .  A
C926        H931   1.076   1_556  S
C927        C928   1.400       .  A
C927        C934   1.448       .  S
C928        C929   1.403       .  A
C929        C930   1.411       .  A
C929        H932   1.085       .  S
C930        C933   1.440       .  S
C933        N935   1.157       .  T
C934        N936   1.157       .  T
C937        C938   1.396       .  A
C937        C942   1.407       .  A
C938        C939   1.394       .  A
C938        H943   1.086       .  S
C939        C940   1.410       .  A
C939        C946   1.430       .  S
C940        C941   1.407       .  A
C941        C942   1.401       .  A
C941        H944   1.084       .  S
C942        C945   1.442       .  S
C945        N947   1.157       .  T
C946        N948   1.151       .  T
C949        C950   1.402       .  A
C949        C954   1.410       .  A
C950        C951   1.401       .  A
C950        H955   1.084       .  S
C951        C952   1.413       .  A
C952        C953   1.405       .  A
C953        C954   1.402       .  A
C953        H956   1.084       .  S
C954        C957   1.444       .  S
C957        N959   1.157       .  T
C958        N960   1.157       .  T
C961        C962   1.413       .  A
C961        C966   1.420       .  A
C962        C963   1.407       .  A
C962        H967   1.084       .  S
C963        C964   1.408       .  A
C963        C970   1.442       .  S
C964        C965   1.397       .  A
C965        C966   1.388       .  A
C965        H968   1.085       .  S
C966        C969   1.446       .  S
C969        N971   1.157       .  T
C970        N972   1.157       .  T
