geometry optimzed in LAMMPS
_audit_creation_date              2020-11-30 
_audit_creation_method            'lammps2cif' 
_symmetry_space_group_name_H-M    'P1' 
_symmetry_Int_Tables_number       1 
_symmetry_cell_setting            triclinic 
loop_ 
_symmetry_equiv_pos_as_xyz 
  x,y,z 
_cell_length_a                    30.32935422 
_cell_length_b                    30.301744023481223 
_cell_length_c                    121.21857209971961 
_cell_angle_alpha                 89.8830730572619 
_cell_angle_beta                  89.9451815119628 
_cell_angle_gamma                 89.97544171871954 
loop_ 
_atom_site_label 
_atom_site_type_symbol 
_atom_site_fract_x 
_atom_site_fract_y 
_atom_site_fract_z 
_atom_site_charge 
O1          O  0.03849729  0.00304472  0.70302955    -0.72000
O2          O  0.03741330  0.99482875  0.67181572    -0.72200
O3          O  0.03727838  0.06131520  0.68641669    -0.72000
O4          O  0.03827460  0.93618240  0.68841426    -0.72000
O5          O  0.96678557  0.93570289  0.68750197    -0.72000
O6          O  0.96590053  0.06083007  0.68781328    -0.72000
O7          O  0.96594374  0.99894439  0.67198711    -0.72000
O8          O  0.96706304  0.99726440  0.70326937    -0.72200
V9          V  0.03653496  0.99879063  0.68742834     1.35200
V10         V  0.96778001  0.99823137  0.68762972     1.35200
C11         C  0.00299325  0.00077989  0.70846065     0.77300
C12         C  0.00148506  0.99630967  0.66655536     0.77300
C13         C  0.00138896  0.08247686  0.68701239     0.77200
C14         C  0.00261223  0.91452850  0.68809372     0.77200
O15         O  0.95720384  0.50009388  0.70266515    -0.72000
O16         O  0.95733345  0.49778840  0.67143464    -0.72200
O17         O  0.95708848  0.43578440  0.68733854    -0.72000
O18         O  0.95819091  0.56172739  0.68681069    -0.72000
O19         O  0.02970073  0.56035754  0.68748832    -0.72000
O20         O  0.02861227  0.43587992  0.68658984    -0.72000
O21         O  0.02887991  0.49976171  0.67136736    -0.72000
O22         O  0.02872116  0.49601039  0.70277354    -0.72200
V23         V  0.95879454  0.49879366  0.68705974     1.35200
V24         V  0.02756868  0.49806541  0.68706128     1.35200
C25         C  0.99276499  0.49816536  0.70805611     0.77300
C26         C  0.99300372  0.49863985  0.66604322     0.77300
C27         C  0.99297803  0.41443124  0.68687310     0.77200
C28         C  0.99441144  0.58246013  0.68720176     0.77200
O29         O  0.54189767  0.01003566  0.67159601    -0.72000
O30         O  0.54397063  0.00267063  0.70284623    -0.72200
O31         O  0.54146382  0.94381736  0.68644140    -0.72000
O32         O  0.54426550  0.06894060  0.68802183    -0.72000
O33         O  0.47271185  0.07062067  0.68759991    -0.72000
O34         O  0.47003361  0.94552788  0.68754377    -0.72000
O35         O  0.47253276  0.00810204  0.70319573    -0.72000
O36         O  0.47033548  0.00835773  0.67188247    -0.72200
V37         V  0.54153602  0.00641532  0.68722718     1.35200
V38         V  0.47277919  0.00806614  0.68754215     1.35200
C39         C  0.50578413  0.01010800  0.66639214     0.77300
C40         C  0.50860826  0.00475222  0.70834378     0.77300
C41         C  0.50522755  0.92326257  0.68693560     0.77200
C42         C  0.50893590  0.09116079  0.68795625     0.77200
O43         O  0.46619157  0.50846142  0.70254646    -0.72000
O44         O  0.47164615  0.50461364  0.67127140    -0.72200
O45         O  0.47002962  0.44374479  0.68747624    -0.72000
O46         O  0.46796831  0.56903562  0.68641783    -0.72000
O47         O  0.53931471  0.57029043  0.68780523    -0.72000
O48         O  0.54159641  0.44523204  0.68755719    -0.72000
O49         O  0.54305029  0.50837206  0.67203041    -0.72000
O50         O  0.53771659  0.50676355  0.70332958    -0.72200
V51         V  0.47032509  0.50646732  0.68693562     1.35200
V52         V  0.53902966  0.50767075  0.68766298     1.35200
C53         C  0.50099605  0.50766268  0.70827454     0.77300
C54         C  0.50828162  0.50636612  0.66629565     0.77300
C55         C  0.50629095  0.42309541  0.68764020     0.77200
C56         C  0.50328296  0.59107490  0.68705821     0.77200
O57         O  0.00125782  0.03828581  0.79664175    -0.72000
O58         O  0.99978569  0.03572493  0.82789932    -0.72200
O59         O  0.06294432  0.03405223  0.81228279    -0.72000
O60         O  0.93760078  0.03975437  0.81218500    -0.72000
O61         O  0.93468886  0.96818378  0.81236367    -0.72000
O62         O  0.05961069  0.96254154  0.81154504    -0.72000
O63         O  0.99862400  0.96410619  0.82764350    -0.72000
O64         O  0.99543866  0.96681604  0.79630452    -0.72200
V65         V  0.00028331  0.03557229  0.81225925     1.35200
V66         V  0.99716499  0.96679955  0.81197106     1.35200
C67         C  0.99857440  0.00301035  0.79115304     0.77300
C68         C  0.99926239  0.99957553  0.83312877     0.77300
C69         C  0.08265134  0.99730235  0.81174444     0.77200
C70         C  0.91472094  0.00481944  0.81234330     0.77200
O71         O  0.98540059  0.53256920  0.79647397    -0.72000
O72         O  0.98909866  0.52843511  0.82780276    -0.72200
O73         O  0.04987063  0.53076525  0.81166912    -0.72000
O74         O  0.92509519  0.53045131  0.81261552    -0.72000
O75         O  0.92485336  0.45900872  0.81133435    -0.72000
O76         O  0.05041670  0.45912842  0.81183205    -0.72000
O77         O  0.98655773  0.45688543  0.82719916    -0.72000
O78         O  0.98930212  0.46097428  0.79592636    -0.72200
V79         V  0.98742345  0.52915851  0.81212504     1.35200
V80         V  0.98770794  0.46035255  0.81158105     1.35200
C81         C  0.98750020  0.49745264  0.79088172     0.77300
C82         C  0.98780307  0.49187951  0.83285424     0.77300
C83         C  0.07155742  0.49511708  0.81168783     0.77200
C84         C  0.90355400  0.49484614  0.81208149     0.77200
O85         O  0.49623414  0.96182647  0.82765920    -0.72000
O86         O  0.50443026  0.96193048  0.79642947    -0.72200
O87         O  0.56258367  0.96501471  0.81299450    -0.72000
O88         O  0.43760177  0.95900127  0.81107846    -0.72000
O89         O  0.43428769  0.03056788  0.81135225    -0.72000
O90         O  0.55923216  0.03655396  0.81252988    -0.72000
O91         O  0.49867311  0.03343629  0.79631760    -0.72000
O92         O  0.49435875  0.03344120  0.82762613    -0.72200
V93         V  0.50010157  0.96332879  0.81204108     1.35200
V94         V  0.49674492  0.03211137  0.81196679     1.35200
C95         C  0.49433489  0.99758262  0.83299395     0.77300
C96         C  0.50252985  0.99765856  0.79106099     0.77300
C97         C  0.58230109  0.00180589  0.81297460     0.77200
C98         C  0.41458631  0.99385656  0.81091752     0.77200
O99         O  0.48383049  0.45707926  0.82710264    -0.72000
O100        O  0.49213486  0.46326223  0.79587751    -0.72200
O101        O  0.55036064  0.46046650  0.81246194    -0.72000
O102        O  0.42516368  0.45989894  0.81051491    -0.72000
O103        O  0.42475646  0.53124876  0.81210243    -0.72000
O104        O  0.54969994  0.53210399  0.81255552    -0.72000
O105        O  0.48769939  0.53480488  0.79670959    -0.72000
O106        O  0.48620031  0.52858339  0.82798551    -0.72200
V107        V  0.48781972  0.46152487  0.81150664     1.35200
V108        V  0.48716495  0.53028882  0.81232510     1.35200
C109        C  0.48413106  0.49176716  0.83289201     0.77300
C110        C  0.49063357  0.50011248  0.79099630     0.77300
C111        C  0.57143651  0.49646885  0.81268158     0.77200
C112        C  0.40356496  0.49557738  0.81109756     0.77200
O113        O  0.03164194  0.00016848  0.32812152    -0.72000
O114        O  0.03086304  0.00044850  0.29680443    -0.72200
O115        O  0.03507233  0.06301629  0.31248429    -0.72000
O116        O  0.02735095  0.93798792  0.31240249    -0.72000
O117        O  0.95595640  0.94222453  0.31164782    -0.72000
O118        O  0.96373834  0.06704310  0.31359987    -0.72000
O119        O  0.95974506  0.00901029  0.29694819    -0.72000
O120        O  0.96006481  0.00061081  0.32823512    -0.72200
V121        V  0.02986171  0.00049366  0.31246078     1.35200
V122        V  0.96122489  0.00463331  0.31259800     1.35200
C123        C  0.99597191  0.99969983  0.33353316     0.77300
C124        C  0.99525170  0.00543468  0.29153716     0.77300
C125        C  0.00064890  0.08640688  0.31322454     0.77200
C126        C  0.99042787  0.91873398  0.31185007     0.77200
O127        O  0.96256468  0.50347313  0.32809728    -0.72000
O128        O  0.95729072  0.49772607  0.29678817    -0.72200
O129        O  0.96369613  0.43822360  0.31316529    -0.72000
O130        O  0.95604409  0.56318073  0.31179201    -0.72000
O131        O  0.02751570  0.56715856  0.31178664    -0.72000
O132        O  0.03484032  0.44207456  0.31143894    -0.72000
O133        O  0.02840358  0.50590461  0.29599289    -0.72000
O134        O  0.03405693  0.50416569  0.32723729    -0.72200
V135        V  0.96124481  0.50070603  0.31243503     1.35200
V136        V  0.02982814  0.50466929  0.31163102     1.35200
C137        C  0.99932345  0.50442543  0.33301526     0.77300
C138        C  0.99194256  0.50191762  0.29106399     0.77300
C139        C  0.00047495  0.41874641  0.31244793     0.77200
C140        C  0.99058585  0.58654921  0.31170217     0.77200
O141        O  0.54461874  0.01208952  0.32738887    -0.72000
O142        O  0.53887084  0.01638980  0.29613153    -0.72200
O143        O  0.53965540  0.07670841  0.31220511    -0.72000
O144        O  0.54368404  0.95157341  0.31127513    -0.72000
O145        O  0.47235655  0.94918386  0.31268907    -0.72000
O146        O  0.46810688  0.07433026  0.31247037    -0.72000
O147        O  0.46750621  0.01094396  0.29693366    -0.72000
O148        O  0.47310727  0.01238183  0.32824739    -0.72200
V149        V  0.54032325  0.01412831  0.31177415     1.35200
V150        V  0.47164046  0.01178761  0.31257350     1.35200
C151        C  0.50987740  0.01202511  0.33316520     0.77300
C152        C  0.50226841  0.01375424  0.29120380     0.77300
C153        C  0.50316362  0.09690076  0.31235118     0.77200
C154        C  0.50869495  0.92898234  0.31187719     0.77200
O155        O  0.46801036  0.51482942  0.29663034    -0.72000
O156        O  0.47267948  0.51358869  0.32800474    -0.72200
O157        O  0.47244534  0.57668163  0.31237167    -0.72000
O158        O  0.46795320  0.45158349  0.31223479    -0.72000
O159        O  0.53949697  0.44899649  0.31202332    -0.72000
O160        O  0.54383876  0.57417158  0.31120010    -0.72000
O161        O  0.54419835  0.51323124  0.32724597    -0.72000
O162        O  0.53942581  0.50959837  0.29602972    -0.72200
V163        V  0.47163337  0.51411384  0.31230362     1.35200
V164        V  0.54033741  0.51159315  0.31164582     1.35200
C165        C  0.50301805  0.51167071  0.29100223     0.77300
C166        C  0.50936422  0.51368732  0.33297639     0.77300
C167        C  0.50884613  0.59682205  0.31171183     0.77200
C168        C  0.50295550  0.42890909  0.31209953     0.77200
O169        O  0.97104157  0.00065667  0.45327637    -0.72000
O170        O  0.96946744  0.00175142  0.42210078    -0.72200
O171        O  0.96820613  0.93853429  0.43750951    -0.72000
O172        O  0.97287295  0.06395858  0.43782761    -0.72000
O173        O  0.04435111  0.06110845  0.43706879    -0.72000
O174        O  0.03976175  0.93617907  0.43779729    -0.72000
O175        O  0.04091137  0.99748889  0.42172364    -0.72000
O176        O  0.04261387  0.99964943  0.45317139    -0.72200
V177        V  0.97181428  0.00119914  0.43768062     1.35200
V178        V  0.04055426  0.99867320  0.43744910     1.35200
C179        C  0.00686623  0.00019262  0.45857914     0.77300
C180        C  0.00466299  0.99929588  0.41656202     0.77300
C181        C  0.00332677  0.91598593  0.43765034     0.77200
C182        C  0.00948593  0.08391750  0.43737536     0.77200
O183        O  0.97692201  0.50002881  0.45279076    -0.72000
O184        O  0.97484224  0.49791552  0.42147841    -0.72200
O185        O  0.97815223  0.43638661  0.43747081    -0.72000
O186        O  0.97338507  0.56133355  0.43680067    -0.72000
O187        O  0.04490638  0.56409614  0.43727077    -0.72000
O188        O  0.04958092  0.43872627  0.43640726    -0.72000
O189        O  0.04621523  0.50323120  0.42120829    -0.72000
O190        O  0.04848965  0.49986217  0.45248703    -0.72200
V191        V  0.97722021  0.49891708  0.43713323     1.35200
V192        V  0.04594216  0.50140189  0.43684622     1.35200
C193        C  0.01306452  0.50004205  0.45799283     0.77300
C194        C  0.01020034  0.50102637  0.41599196     0.77300
C195        C  0.01454551  0.41615302  0.43693401     0.77200
C196        C  0.00827518  0.58408010  0.43703840     0.77200
O197        O  0.55381149  0.00927938  0.42147140    -0.72000
O198        O  0.55517991  0.00629600  0.45273117    -0.72200
O199        O  0.55341315  0.94536021  0.43672023    -0.72000
O200        O  0.55540407  0.07051337  0.43741522    -0.72000
O201        O  0.48384238  0.07190582  0.43751396    -0.72000
O202        O  0.48185176  0.94668133  0.43710389    -0.72000
O203        O  0.48364483  0.00813512  0.45303046    -0.72000
O204        O  0.48223233  0.01041116  0.42163646    -0.72200
V205        V  0.55303034  0.00794810  0.43710065     1.35200
V206        V  0.48425618  0.00924505  0.43732365     1.35200
C207        C  0.51788500  0.01014604  0.41620254     0.77300
C208        C  0.51976646  0.00655629  0.45824115     0.77300
C209        C  0.51725290  0.92464029  0.43679063     0.77200
C210        C  0.52001482  0.09262626  0.43745922     0.77200
O211        O  0.48503818  0.50785518  0.45279600    -0.72000
O212        O  0.48401045  0.50919066  0.42144964    -0.72200
O213        O  0.48528681  0.44571471  0.43691693    -0.72000
O214        O  0.48373034  0.57086617  0.43728122    -0.72000
O215        O  0.55531453  0.57197770  0.43735341    -0.72000
O216        O  0.55683141  0.44675864  0.43644951    -0.72000
O217        O  0.55554939  0.51152761  0.42128666    -0.72000
O218        O  0.55662701  0.50727971  0.45259375    -0.72200
V219        V  0.48591119  0.50838332  0.43711240     1.35200
V220        V  0.55469370  0.50932191  0.43693698     1.35200
C221        C  0.52104938  0.50741819  0.45804955     0.77300
C222        C  0.51959093  0.51110472  0.41601609     0.77300
C223        C  0.52135376  0.42482443  0.43652740     0.77200
C224        C  0.51917587  0.59280045  0.43735031     0.77200
O225        O  0.00465454  0.94924895  0.04717769    -0.72000
O226        O  0.00396271  0.95303481  0.07857434    -0.72200
O227        O  0.94173560  0.94824414  0.06284255    -0.72000
O228        O  0.06684691  0.95396560  0.06294018    -0.72000
O229        O  0.06369572  0.02551786  0.06253444    -0.72000
O230        O  0.93870651  0.01974396  0.06200898    -0.72000
O231        O  0.99968137  0.02450171  0.07790023    -0.72000
O232        O  0.00241440  0.02080802  0.04661220    -0.72200
V233        V  0.00426667  0.95249073  0.06286373     1.35200
V234        V  0.00121170  0.02122630  0.06227642     1.35200
C235        C  0.00372010  0.98442966  0.04152779     0.77300
C236        C  0.00124700  0.98951412  0.08359412     0.77300
C237        C  0.91882829  0.98309724  0.06242954     0.77200
C238        C  0.08666523  0.99068999  0.06279154     0.77200
O239        O  0.98998069  0.52695938  0.04589833    -0.72000
O240        O  0.98879398  0.53381934  0.07715990    -0.72200
O241        O  0.05215803  0.52939755  0.06163442    -0.72000
O242        O  0.92667158  0.53109660  0.06135401    -0.72000
O243        O  0.92616246  0.45954875  0.06226562    -0.72000
O244        O  0.05101204  0.45790963  0.06282806    -0.72000
O245        O  0.98734303  0.46231964  0.07820840    -0.72000
O246        O  0.98927406  0.45541669  0.04688269    -0.72200
V247        V  0.98942057  0.52894069  0.06154135     1.35200
V248        V  0.98852856  0.46020604  0.06252794     1.35200
C249        C  0.98943781  0.49008263  0.04104120     0.77300
C250        C  0.98755741  0.49930747  0.08303872     0.77300
C251        C  0.07298923  0.49328452  0.06228914     0.77200
C252        C  0.90502171  0.49541973  0.06167496     0.77200
O253        O  0.50179163  0.95472570  0.07835181    -0.72000
O254        O  0.50075686  0.94980044  0.04698844    -0.72200
O255        O  0.56379917  0.94933611  0.06258484    -0.72000
O256        O  0.43879548  0.95503400  0.06277679    -0.72000
O257        O  0.44174136  0.02655782  0.06207836    -0.72000
O258        O  0.56686168  0.02082926  0.06172991    -0.72000
O259        O  0.50347151  0.02132193  0.04625629    -0.72000
O260        O  0.50535013  0.02620067  0.07753766    -0.72200
V261        V  0.50132769  0.95360829  0.06265394     1.35200
V262        V  0.50429145  0.02232576  0.06191576     1.35200
C263        C  0.50407807  0.99138329  0.08330128     0.77300
C264        C  0.50177110  0.98476583  0.04126179     0.77300
C265        C  0.58672045  0.98414447  0.06217443     0.77200
C266        C  0.41886935  0.99168669  0.06246113     0.77200
O267        O  0.49071849  0.46394332  0.07841480    -0.72000
O268        O  0.48893371  0.45484018  0.04713281    -0.72200
O269        O  0.55201108  0.46011675  0.06249937    -0.72000
O270        O  0.42720052  0.45841464  0.06307075    -0.72000
O271        O  0.42590853  0.52980126  0.06154763    -0.72000
O272        O  0.55143978  0.53160914  0.06135003    -0.72000
O273        O  0.48830283  0.52630999  0.04585994    -0.72000
O274        O  0.48885483  0.53537427  0.07710922    -0.72200
V275        V  0.48965819  0.46074671  0.06275799     1.35200
V276        V  0.48864775  0.52940905  0.06149791     1.35200
C277        C  0.49006375  0.50120141  0.08311124     0.77300
C278        C  0.48858451  0.48910592  0.04114913     0.77300
C279        C  0.57313036  0.49595193  0.06180563     0.77200
C280        C  0.40515164  0.49370858  0.06235886     0.77200
O281        O  0.00318261  0.03858505  0.17168981    -0.72000
O282        O  0.99975455  0.04306238  0.20298464    -0.72200
O283        O  0.06435210  0.04220305  0.18772827    -0.72000
O284        O  0.93951766  0.03953528  0.18693007    -0.72000
O285        O  0.94055377  0.96809357  0.18827239    -0.72000
O286        O  0.06596425  0.97057935  0.18767471    -0.72000
O287        O  0.00473554  0.97155401  0.20365610    -0.72000
O288        O  0.00224601  0.96697458  0.17231708    -0.72200
V289        V  0.00183588  0.03943895  0.18734670     1.35200
V290        V  0.00332816  0.97064788  0.18797616     1.35200
C291        C  0.00236252  0.00207313  0.16665040     0.77300
C292        C  0.00197384  0.00805994  0.20864558     0.77300
C293        C  0.08657007  0.00687364  0.18770667     0.77200
C294        C  0.91863268  0.00354034  0.18753643     0.77200
O295        O  0.98939688  0.54459819  0.17162146    -0.72000
O296        O  0.99573305  0.54261552  0.20298135    -0.72200
O297        O  0.05485578  0.54334338  0.18650654    -0.72000
O298        O  0.93015992  0.54414616  0.18806846    -0.72000
O299        O  0.92926479  0.47268814  0.18684053    -0.72000
O300        O  0.05479720  0.47176216  0.18727402    -0.72000
O301        O  0.99067751  0.47110416  0.20269962    -0.72000
O302        O  0.99257073  0.47303771  0.17140645    -0.72200
V303        V  0.99253731  0.54230071  0.18729315     1.35200
V304        V  0.99195414  0.47349480  0.18706113     1.35200
C305        C  0.99013552  0.50905767  0.16615385     0.77300
C306        C  0.99312673  0.50645669  0.20817873     0.77300
C307        C  0.07624672  0.50756871  0.18679727     0.77200
C308        C  0.90831020  0.50869989  0.18751302     0.77200
O309        O  0.49987907  0.96861940  0.20319637    -0.72000
O310        O  0.50388284  0.96697963  0.17188781    -0.72200
O311        O  0.56487242  0.96666482  0.18798592    -0.72000
O312        O  0.43935417  0.96927585  0.18708818    -0.72000
O313        O  0.44104766  0.04085578  0.18763905    -0.72000
O314        O  0.56576223  0.03818577  0.18695634    -0.72000
O315        O  0.50242831  0.03860285  0.17162535    -0.72000
O316        O  0.50517772  0.04014122  0.20297247    -0.72200
V317        V  0.50205437  0.96922482  0.18753951     1.35200
V318        V  0.50350247  0.03804183  0.18730314     1.35200
C319        C  0.50245709  0.00460044  0.20841215     0.77300
C320        C  0.50351465  0.00250747  0.16639699     0.77300
C321        C  0.58672441  0.00221277  0.18745776     0.77200
C322        C  0.41878456  0.00561777  0.18734933     0.77200
O323        O  0.49516740  0.47212261  0.20271012    -0.72000
O324        O  0.49079717  0.47503382  0.17143560    -0.72200
O325        O  0.55532344  0.47415504  0.18654456    -0.72000
O326        O  0.42992746  0.47317081  0.18761358    -0.72000
O327        O  0.42964067  0.54478550  0.18705855    -0.72000
O328        O  0.55452944  0.54560841  0.18779586    -0.72000
O329        O  0.49339793  0.54662195  0.17174729    -0.72000
O330        O  0.49027914  0.54366813  0.20310690    -0.72200
V331        V  0.49270025  0.47497618  0.18708079     1.35200
V332        V  0.49202102  0.54379232  0.18742535     1.35200
C333        C  0.49303923  0.50738350  0.20823065     0.77300
C334        C  0.49211826  0.51123715  0.16623309     0.77300
C335        C  0.57633732  0.51011624  0.18715089     0.77200
C336        C  0.40837013  0.50895087  0.18733683     0.77200
O337        O  0.99487842  0.02617333  0.92189470    -0.72000
O338        O  0.99491947  0.02228928  0.95321109    -0.72200
O339        O  0.05742760  0.02666004  0.93755898    -0.72000
O340        O  0.93220537  0.02167634  0.93749491    -0.72000
O341        O  0.93508379  0.95017204  0.93673740    -0.72000
O342        O  0.06003604  0.95508217  0.93726024    -0.72000
O343        O  0.99677062  0.95072268  0.95267888    -0.72000
O344        O  0.99859407  0.95468255  0.92131172    -0.72200
V345        V  0.99486816  0.02280994  0.93753070     1.35200
V346        V  0.99754279  0.95406056  0.93701047     1.35200
C347        C  0.99694746  0.99118929  0.91624193     0.77300
C348        C  0.99610619  0.98584531  0.95831085     0.77300
C349        C  0.08011951  0.99162442  0.93748446     0.77200
C350        C  0.91224009  0.98506637  0.93701294     0.77200
O351        O  0.98782829  0.52069024  0.92127337    -0.72000
O352        O  0.98589000  0.52034520  0.95261300    -0.72200
O353        O  0.04948278  0.51848981  0.93719213    -0.72000
O354        O  0.92420571  0.52242188  0.93665562    -0.72000
O355        O  0.92220214  0.45080967  0.93659199    -0.72000
O356        O  0.04715265  0.44689126  0.93724710    -0.72000
O357        O  0.98313973  0.44875449  0.95258557    -0.72000
O358        O  0.98605811  0.44907424  0.92127858    -0.72200
V359        V  0.98681208  0.51911347  0.93693976     1.35200
V360        V  0.98469665  0.45029829  0.93692900     1.35200
C361        C  0.98721544  0.48491525  0.91591989     0.77300
C362        C  0.98411348  0.48448194  0.95795564     0.77300
C363        C  0.06971891  0.48196417  0.93729230     0.77200
C364        C  0.90181466  0.48720361  0.93648735     0.77200
O365        O  0.49538347  0.94792897  0.95248634    -0.72000
O366        O  0.49374308  0.95187314  0.92111343    -0.72200
O367        O  0.55728198  0.94741591  0.93654741    -0.72000
O368        O  0.43206740  0.95234522  0.93706513    -0.72000
O369        O  0.43487346  0.02389224  0.93760022    -0.72000
O370        O  0.55982859  0.01896829  0.93704489    -0.72000
O371        O  0.49629050  0.02341542  0.92170775    -0.72000
O372        O  0.49821682  0.01947062  0.95297722    -0.72200
V373        V  0.49468890  0.95124913  0.93681400     1.35200
V374        V  0.49729411  0.02000634  0.93732291     1.35200
C375        C  0.49682967  0.98308908  0.95809312     0.77300
C376        C  0.49453395  0.98844126  0.91605527     0.77300
C377        C  0.57996559  0.98244194  0.93668561     0.77200
C378        C  0.41209001  0.98897861  0.93743042     0.77200
O379        O  0.48853890  0.44519629  0.95257272    -0.72000
O380        O  0.48536705  0.44655695  0.92125169    -0.72200
O381        O  0.54953284  0.44788481  0.93652106    -0.72000
O382        O  0.42430883  0.44402255  0.93725831    -0.72000
O383        O  0.42223131  0.51562594  0.93742228    -0.72000
O384        O  0.54721903  0.51948623  0.93664358    -0.72000
O385        O  0.48320643  0.51815620  0.92138038    -0.72000
O386        O  0.48609168  0.51679177  0.95272225    -0.72200
V387        V  0.48689495  0.44730213  0.93690674     1.35200
V388        V  0.48475195  0.51611164  0.93704806     1.35200
C389        C  0.48777062  0.48077279  0.95800768     0.77300
C390        C  0.48367130  0.48253328  0.91595846     0.77300
C391        C  0.56976527  0.48438903  0.93642940     0.77200
C392        C  0.40186788  0.47922946  0.93741050     0.77200
O393        O  0.96861671  0.99229788  0.57817315    -0.72000
O394        O  0.96934450  0.99485157  0.54695915    -0.72200
O395        O  0.96874844  0.93073617  0.56231944    -0.72000
O396        O  0.96932508  0.05612160  0.56284957    -0.72000
O397        O  0.04089646  0.05560762  0.56245414    -0.72000
O398        O  0.04029418  0.93058053  0.56287434    -0.72000
O399        O  0.04089167  0.99255148  0.54697122    -0.72000
O400        O  0.04019006  0.99348885  0.57835151    -0.72200
V401        V  0.97040916  0.99345489  0.56257445     1.35200
V402        V  0.03919712  0.99306751  0.56265979     1.35200
C403        C  0.00414147  0.99272026  0.58360919     0.77300
C404        C  0.00513839  0.99417429  0.54161461     0.77300
C405        C  0.00449757  0.90925424  0.56266402     0.77200
C406        C  0.00525848  0.07726038  0.56260943     0.77200
O407        O  0.96340140  0.49265346  0.57720598    -0.72000
O408        O  0.97002162  0.49385884  0.54592467    -0.72200
O409        O  0.96676648  0.43043024  0.56147476    -0.72000
O410        O  0.96674499  0.55601443  0.56167998    -0.72000
O411        O  0.03810829  0.55555310  0.56303962    -0.72000
O412        O  0.03833346  0.43078119  0.56189491    -0.72000
O413        O  0.04147683  0.49554359  0.54684547    -0.72000
O414        O  0.03486262  0.49082497  0.57809012    -0.72200
V415        V  0.96807970  0.49322212  0.56158170     1.35200
V416        V  0.03677129  0.49316544  0.56245148     1.35200
C417        C  0.99804648  0.49136655  0.58299650     0.77300
C418        C  0.00687114  0.49528255  0.54103807     0.77300
C419        C  0.00271355  0.40921621  0.56158625     0.77200
C420        C  0.00254655  0.57718799  0.56249273     0.77200
O421        O  0.55611499  0.00773138  0.54706656    -0.72000
O422        O  0.55100532  0.01250191  0.57842856    -0.72200
O423        O  0.55426824  0.94729858  0.56336390    -0.72000
O424        O  0.55303133  0.07274399  0.56214546    -0.72000
O425        O  0.48146363  0.07181084  0.56201140    -0.72000
O426        O  0.48288892  0.94691943  0.56205992    -0.72000
O427        O  0.47956718  0.00928370  0.57765425    -0.72000
O428        O  0.48461339  0.00934456  0.54642199    -0.72200
V429        V  0.55228751  0.01004696  0.56273773     1.35200
V430        V  0.48357559  0.00935165  0.56205386     1.35200
C431        C  0.52109786  0.00808691  0.54138677     0.77300
C432        C  0.51427341  0.01140964  0.58338941     0.77300
C433        C  0.51865750  0.92569790  0.56278770     0.77200
C434        C  0.51693611  0.09368115  0.56198011     0.77200
O435        O  0.55459177  0.51073132  0.54668196    -0.72000
O436        O  0.55223747  0.50774164  0.57794321    -0.72200
O437        O  0.55256464  0.44661373  0.56193708    -0.72000
O438        O  0.55404134  0.57207923  0.56270711    -0.72000
O439        O  0.48246768  0.57251923  0.56249353    -0.72000
O440        O  0.48102041  0.44770178  0.56148970    -0.72000
O441        O  0.48067955  0.50804863  0.57769434    -0.72000
O442        O  0.48304071  0.51243103  0.54630420    -0.72200
V443        V  0.55196758  0.50932149  0.56230983     1.35200
V444        V  0.48319624  0.51014812  0.56200365     1.35200
C445        C  0.51932448  0.51204683  0.54113901     0.77300
C446        C  0.51617046  0.50738080  0.58317934     0.77300
C447        C  0.51646655  0.42575988  0.56156235     0.77200
C448        C  0.51833676  0.59369022  0.56273958     0.77200
C449        C  0.51829578  0.87691327  0.56289158    -0.01500
C450        C  0.47861723  0.85441531  0.56116326    -0.09500
C451        C  0.47718780  0.80852101  0.56117608    -0.18300
C452        C  0.51569142  0.78322407  0.56296504     0.04100
C453        C  0.55602827  0.80609814  0.56469683     0.18300
C454        C  0.55699540  0.85252541  0.56464616    -0.19700
C455        C  0.59511188  0.78247982  0.56643365    -0.21000
C456        C  0.59508398  0.73655105  0.56639557    -0.19600
C457        C  0.55592940  0.71309187  0.56468167     0.19600
C458        C  0.51558920  0.73611810  0.56303248     0.01800
C459        C  0.47683687  0.71096436  0.56152076    -0.14300
C460        C  0.47816175  0.66506539  0.56151260    -0.12000
C461        C  0.51797667  0.64244233  0.56296857     0.01300
C462        C  0.55681866  0.66667265  0.56458770    -0.24200
H463        H  0.44826950  0.87239023  0.55972957     0.09300
H464        H  0.44535006  0.79400950  0.55970664     0.12900
H465        H  0.58790721  0.86964887  0.56598608     0.11600
H466        H  0.62597602  0.79965281  0.56777885     0.12800
H467        H  0.62592967  0.71925370  0.56770698     0.11800
H468        H  0.44484168  0.72559245  0.56033228     0.08900
H469        H  0.44764892  0.64718840  0.56026934     0.12200
H470        H  0.58777360  0.64942612  0.56580059     0.14000
C471        C  0.51549019  0.37699851  0.56128237    -0.01500
C472        C  0.47511865  0.35459407  0.56134599    -0.09500
C473        C  0.47365644  0.30860888  0.56131510    -0.18300
C474        C  0.51283336  0.28327935  0.56122262     0.04100
C475        C  0.55374188  0.30619145  0.56100885     0.18300
C476        C  0.55470239  0.35253216  0.56104571    -0.19700
C477        C  0.59349365  0.28274518  0.56081737    -0.21000
C478        C  0.59358621  0.23688515  0.56091299    -0.19600
C479        C  0.55392948  0.21333003  0.56122475     0.19600
C480        C  0.51293313  0.23614307  0.56137065     0.01800
C481        C  0.47386666  0.21072913  0.56172134    -0.14300
C482        C  0.47549253  0.16476676  0.56191082    -0.12000
C483        C  0.51592154  0.14244449  0.56176334     0.01300
C484        C  0.55505845  0.16698609  0.56141947    -0.24200
H485        H  0.44431390  0.37269083  0.56148651     0.09300
H486        H  0.44129822  0.29400115  0.56139200     0.12900
H487        H  0.58613661  0.36956315  0.56094129     0.11600
H488        H  0.62477740  0.30001009  0.56062427     0.12800
H489        H  0.62493781  0.21971065  0.56078472     0.11800
H490        H  0.44146609  0.22525462  0.56188878     0.08900
H491        H  0.44474775  0.14661734  0.56219469     0.12200
H492        H  0.58654093  0.15001874  0.56130703     0.14000
C493        C  0.00476818  0.86048581  0.56289094    -0.01500
C494        C  0.04436418  0.83776709  0.56462463    -0.09500
C495        C  0.04540025  0.79180942  0.56484286    -0.18300
C496        C  0.00659618  0.76676761  0.56325894     0.04100
C497        C  0.96638149  0.78995917  0.56156508     0.18300
C498        C  0.96579409  0.83634033  0.56143186    -0.19700
C499        C  0.92703376  0.76673048  0.55995904    -0.21000
C500        C  0.92673984  0.72084116  0.55993712    -0.19600
C501        C  0.96578689  0.69702969  0.56152076     0.19600
C502        C  0.00629536  0.71963823  0.56323117     0.01800
C503        C  0.04479016  0.69404429  0.56476728    -0.14300
C504        C  0.04316438  0.64812185  0.56453085    -0.12000
C505        C  0.00327676  0.62595303  0.56280505     0.01300
C506        C  0.96461217  0.65065163  0.56134931    -0.24200
H507        H  0.07490158  0.85561274  0.56585660     0.09300
H508        H  0.07719264  0.77701256  0.56624123     0.12900
H509        H  0.93494504  0.85364135  0.56010102     0.11600
H510        H  0.89626065  0.78418635  0.55867076     0.12800
H511        H  0.89574707  0.70384724  0.55863305     0.11800
H512        H  0.07679394  0.70837468  0.56613438     0.08900
H513        H  0.07351745  0.62987050  0.56571658     0.12200
H514        H  0.93355642  0.63379595  0.56000236     0.14000
C515        C  0.00576245  0.12600546  0.56240552    -0.01500
C516        C  0.04500727  0.14858973  0.56015742    -0.09500
C517        C  0.04593669  0.19454496  0.55979250    -0.18300
C518        C  0.00743027  0.21969096  0.56174612     0.04100
C519        C  0.96763940  0.19659443  0.56403286     0.18300
C520        C  0.96714772  0.15024952  0.56432125    -0.19700
C521        C  0.92856405  0.21987303  0.56600983    -0.21000
C522        C  0.92804576  0.26573522  0.56572954    -0.19600
C523        C  0.96663574  0.28947275  0.56351705     0.19600
C524        C  0.00695487  0.26681339  0.56152909     0.01800
C525        C  0.04507111  0.29237651  0.55947834    -0.14300
C526        C  0.04329264  0.33830227  0.55947221    -0.12000
C527        C  0.00354673  0.36048065  0.56141195     0.01300
C528        C  0.96522875  0.33583612  0.56336263    -0.24200
H529        H  0.07523916  0.13063001  0.55857250     0.09300
H530        H  0.07740052  0.20929413  0.55793032     0.12900
H531        H  0.93659454  0.13302488  0.56608317     0.11600
H532        H  0.89813656  0.20246981  0.56777307     0.12800
H533        H  0.89723846  0.28277421  0.56728851     0.11800
H534        H  0.07695610  0.27798498  0.55791593     0.08900
H535        H  0.07336109  0.35656956  0.55791182     0.12200
H536        H  0.93434189  0.35275913  0.56493142     0.14000
C537        C  0.85306561  0.48832394  0.93617919    -0.01500
C538        C  0.83051485  0.52821192  0.93466998    -0.09500
C539        C  0.78447314  0.52932670  0.93441856    -0.18300
C540        C  0.75934024  0.49031577  0.93574540     0.04100
C541        C  0.78249887  0.44991537  0.93721094     0.18300
C542        C  0.82875595  0.44928578  0.93738530    -0.19700
C543        C  0.75941287  0.41029813  0.93854784    -0.21000
C544        C  0.71363171  0.40983125  0.93850295    -0.19600
C545        C  0.68977701  0.44898448  0.93714489     0.19600
C546        C  0.71219100  0.48985106  0.93573683     0.01800
C547        C  0.68635337  0.52840487  0.93447099    -0.14300
C548        C  0.64036599  0.52641632  0.93468971    -0.12000
C549        C  0.61850757  0.48608081  0.93610204     0.01300
C550        C  0.64350458  0.44745754  0.93726379    -0.24200
H551        H  0.84853967  0.55880221  0.93364448     0.09300
H552        H  0.76961145  0.56124955  0.93319547     0.12900
H553        H  0.84587440  0.41820250  0.93855549     0.11600
H554        H  0.77690626  0.37941242  0.93966569     0.12800
H555        H  0.69674720  0.37859991  0.93958724     0.11800
H556        H  0.70061161  0.56065425  0.93335343     0.08900
H557        H  0.62182525  0.55674063  0.93372928     0.12200
H558        H  0.62692460  0.41606261  0.93838046     0.14000
C559        C  0.35308849  0.47803378  0.93749548    -0.01500
C560        C  0.33053346  0.43792158  0.93651282    -0.09500
C561        C  0.28449575  0.43670713  0.93645883    -0.18300
C562        C  0.25933849  0.47586640  0.93742235     0.04100
C563        C  0.28246724  0.51647813  0.93840814     0.18300
C564        C  0.32874562  0.51718391  0.93843448    -0.19700
C565        C  0.25932453  0.55625159  0.93934457    -0.21000
C566        C  0.21353193  0.55669427  0.93929190    -0.19600
C567        C  0.18971641  0.51736086  0.93833670     0.19600
C568        C  0.21218920  0.47630445  0.93742586     0.01800
C569        C  0.18641159  0.43757050  0.93657650    -0.14300
C570        C  0.14042620  0.43962202  0.93658822    -0.12000
C571        C  0.11848694  0.48017797  0.93740915     0.01300
C572        C  0.14343039  0.51892642  0.93829022    -0.24200
H573        H  0.34854871  0.40721470  0.93572243     0.09300
H574        H  0.26966386  0.40460210  0.93562218     0.12900
H575        H  0.34585087  0.54844773  0.93919210     0.11600
H576        H  0.27678234  0.58730168  0.94010258     0.12800
H577        H  0.19660871  0.58807246  0.94000895     0.11800
H578        H  0.20070835  0.40514570  0.93590342     0.08900
H579        H  0.12195658  0.40916601  0.93589770     0.12200
H580        H  0.12679986  0.55049281  0.93896626     0.14000
C581        C  0.86346616  0.98307415  0.93674495    -0.01500
C582        C  0.84164539  0.94234935  0.93635790    -0.09500
C583        C  0.79563206  0.94023340  0.93614764    -0.18300
C584        C  0.76974203  0.97907719  0.93632151     0.04100
C585        C  0.79213623  0.02030701  0.93662378     0.18300
C586        C  0.83839206  0.02191243  0.93683423    -0.19700
C587        C  0.76828480  0.05981621  0.93675435    -0.21000
C588        C  0.72251855  0.05939377  0.93667631    -0.19600
C589        C  0.69942805  0.01945194  0.93647902     0.19600
C590        C  0.72256719  0.97863564  0.93626071     0.01800
C591        C  0.69737581  0.93931919  0.93605953    -0.14300
C592        C  0.65129235  0.94062316  0.93616122    -0.12000
C593        C  0.62876678  0.98098190  0.93645140     0.01300
C594        C  0.65317395  0.02023449  0.93655892    -0.24200
H595        H  0.86022122  0.91181527  0.93623932     0.09300
H596        H  0.78137411  0.90770245  0.93586983     0.12900
H597        H  0.85490262  0.05362873  0.93708927     0.11600
H598        H  0.78516122  0.09132808  0.93695735     0.12800
H599        H  0.70503422  0.09059357  0.93682202     0.11800
H600        H  0.71224254  0.90703797  0.93586564     0.08900
H601        H  0.63323094  0.90979720  0.93604712     0.12200
H602        H  0.63612754  0.05168764  0.93675695     0.14000
C603        C  0.12886118  0.99309813  0.93767266    -0.01500
C604        C  0.15133320  0.03342227  0.93717065    -0.09500
C605        C  0.19738474  0.03474149  0.93726152    -0.18300
C606        C  0.22257491  0.99547344  0.93787740     0.04100
C607        C  0.19947783  0.95470924  0.93847675     0.18300
C608        C  0.15324648  0.95390980  0.93835933    -0.19700
C609        C  0.22258794  0.91483756  0.93915105    -0.21000
C610        C  0.26835045  0.91441139  0.93914316    -0.19600
C611        C  0.29214813  0.95384784  0.93846214     0.19600
C612        C  0.26971685  0.99503084  0.93787127     0.01800
C613        C  0.29553335  0.03382928  0.93725080    -0.14300
C614        C  0.34152512  0.03169299  0.93715171    -0.12000
C615        C  0.36337170  0.99099250  0.93764533     0.01300
C616        C  0.33838916  0.95221752  0.93832995    -0.24200
H617        H  0.13325449  0.06419250  0.93665352     0.09300
H618        H  0.21221059  0.06699048  0.93681375     0.12900
H619        H  0.13620088  0.92250339  0.93880042     0.11600
H620        H  0.20512665  0.88369051  0.93964398     0.12800
H621        H  0.28526442  0.88294959  0.93963025     0.11800
H622        H  0.28125199  0.06633454  0.93680575     0.08900
H623        H  0.36006374  0.06217282  0.93662752     0.12200
H624        H  0.35496152  0.92054342  0.93876125     0.14000
C625        C  0.62511435  0.51084909  0.18713728    -0.01500
C626        C  0.64764694  0.55089204  0.18828101    -0.09500
C627        C  0.69359670  0.55216687  0.18837779    -0.18300
C628        C  0.71880277  0.51312358  0.18731559     0.04100
C629        C  0.69580418  0.47256732  0.18603520     0.18300
C630        C  0.64946830  0.47176832  0.18599518    -0.19700
C631        C  0.71917073  0.43303852  0.18479597    -0.21000
C632        C  0.76501207  0.43284055  0.18482157    -0.19600
C633        C  0.78864133  0.47212617  0.18616214     0.19600
C634        C  0.76590740  0.51285908  0.18745762     0.01800
C635        C  0.79136074  0.55151340  0.18888035    -0.14300
C636        C  0.83728613  0.54979932  0.18892777    -0.12000
C637        C  0.85955754  0.50968112  0.18758476     0.01300
C638        C  0.83497127  0.47090221  0.18622585    -0.24200
H639        H  0.62966924  0.58159159  0.18914115     0.09300
H640        H  0.70827597  0.58430421  0.18927228     0.12900
H641        H  0.63235966  0.44059026  0.18505645     0.11600
H642        H  0.70186005  0.40202551  0.18378583     0.12800
H643        H  0.78211247  0.40168475  0.18382405     0.11800
H644        H  0.77689748  0.58364470  0.19000923     0.08900
H645        H  0.85545346  0.58024083  0.19003094     0.12200
H646        H  0.85189014  0.43965661  0.18517995     0.14000
C647        C  0.12504661  0.50815754  0.18661643    -0.01500
C648        C  0.14739768  0.54776864  0.18455337    -0.09500
C649        C  0.19332317  0.54939758  0.18453378    -0.18300
C650        C  0.21875494  0.51120407  0.18665724     0.04100
C651        C  0.19598256  0.47094237  0.18866424     0.18300
C652        C  0.14960446  0.46974982  0.18860634    -0.19700
C653        C  0.21963283  0.43213385  0.19074525    -0.21000
C654        C  0.26549560  0.43234185  0.19083438    -0.19600
C655        C  0.28889701  0.47141333  0.18890555     0.19600
C656        C  0.26587314  0.51150242  0.18685297     0.01800
C657        C  0.29106007  0.55016963  0.18513281    -0.14300
C658        C  0.33698915  0.54897890  0.18536484    -0.12000
C659        C  0.35958103  0.50936567  0.18725770     0.01300
C660        C  0.33527447  0.47064561  0.18903336    -0.24200
H661        H  0.12927398  0.57788889  0.18291634     0.09300
H662        H  0.20779818  0.58112063  0.18282067     0.12900
H663        H  0.13262487  0.43891755  0.19021590     0.11600
H664        H  0.20252820  0.40134018  0.19229622     0.12800
H665        H  0.28279611  0.40169690  0.19244333     0.11800
H666        H  0.27638454  0.58196518  0.18361626     0.08900
H667        H  0.35492183  0.57940012  0.18397456     0.12200
H668        H  0.35244607  0.43985519  0.19057381     0.14000
C669        C  0.86986572  0.00352918  0.18735351    -0.01500
C670        C  0.84711685  0.04359133  0.18646427    -0.09500
C671        C  0.80124690  0.04471863  0.18632792    -0.18300
C672        C  0.77621126  0.00549926  0.18710005     0.04100
C673        C  0.79933630  0.96478058  0.18790308     0.18300
C674        C  0.84573293  0.96413297  0.18802475    -0.19700
C675        C  0.77599675  0.92501416  0.18861209    -0.21000
C676        C  0.73010444  0.92480018  0.18860400    -0.19600
C677        C  0.70637969  0.96435423  0.18790891     0.19600
C678        C  0.72913231  0.00528991  0.18713484     0.01800
C679        C  0.70374609  0.04431387  0.18648564    -0.14300
C680        C  0.65790482  0.04278011  0.18661368    -0.12000
C681        C  0.63549726  0.00249138  0.18737670     0.01300
C682        C  0.65997457  0.96328728  0.18801081    -0.24200
H683        H  0.86486630  0.07452567  0.18587977     0.09300
H684        H  0.78654435  0.07693618  0.18561727     0.12900
H685        H  0.86302994  0.93291555  0.18867164     0.11600
H686        H  0.79336436  0.89383335  0.18920147     0.12800
H687        H  0.71304291  0.89346016  0.18918395     0.11800
H688        H  0.71814685  0.07669587  0.18589923     0.08900
H689        H  0.63990308  0.07360152  0.18610429     0.12200
H690        H  0.64294841  0.93191603  0.18860250     0.14000
C691        C  0.13536074  0.00803455  0.18769268    -0.01500
C692        C  0.15779400  0.04826067  0.18859350    -0.09500
C693        C  0.20380780  0.04970032  0.18854990    -0.18300
C694        C  0.22910801  0.01065982  0.18756303     0.04100
C695        C  0.20613216  0.96992680  0.18664056     0.18300
C696        C  0.15983267  0.96898083  0.18673388    -0.19700
C697        C  0.22945929  0.93029395  0.18562369    -0.21000
C698        C  0.27526391  0.93010764  0.18554452    -0.19600
C699        C  0.29891893  0.96955084  0.18647591     0.19600
C700        C  0.27625984  0.01047018  0.18746921     0.01800
C701        C  0.30186036  0.04931718  0.18833108    -0.14300
C702        C  0.34784970  0.04750009  0.18825597    -0.12000
C703        C  0.36999158  0.00708076  0.18733856     0.01300
C704        C  0.34522519  0.96822696  0.18643345    -0.24200
H705        H  0.13969502  0.07892744  0.18936384     0.09300
H706        H  0.21850048  0.08190293  0.18930252     0.12900
H707        H  0.14281889  0.93765513  0.18601048     0.11600
H708        H  0.21213867  0.89915554  0.18489814     0.12800
H709        H  0.29232498  0.89883037  0.18476312     0.11800
H710        H  0.28742641  0.08165249  0.18908283     0.08900
H711        H  0.36616278  0.07804594  0.18896101     0.12200
H712        H  0.36200577  0.93676739  0.18568773     0.14000
C713        C  0.48860588  0.48032784  0.97022519    -0.01500
C714        C  0.49772870  0.44133530  0.97602630    -0.09500
C715        C  0.49837856  0.44080092  0.98756088    -0.18300
C716        C  0.48953200  0.47947104  0.99370952     0.04100
C717        C  0.48015521  0.51887487  0.98775405     0.18300
C718        C  0.47997950  0.51897925  0.97617095    -0.19700
C719        C  0.47084529  0.55805079  0.99337785    -0.21000
C720        C  0.47078237  0.55913483  0.00482651    -0.19600
C721        C  0.48005299  0.52107710  0.01095014     0.19600
C722        C  0.48949636  0.48059335  0.00551629     0.01800
C723        C  0.49837565  0.44315813  0.01216263    -0.14300
C724        C  0.49775976  0.44592446  0.02367901    -0.12000
C725        C  0.48864248  0.48599254  0.02895844     0.01300
C726        C  0.47988306  0.52341177  0.02251418    -0.24200
H727        H  0.50462779  0.41102372  0.97162748     0.09300
H728        H  0.50580897  0.40960132  0.99141030     0.12900
H729        H  0.47267787  0.54930207  0.97176949     0.11600
H730        H  0.46354383  0.58813649  0.98888401     0.12800
H731        H  0.46344502  0.59003906  0.00892601     0.11800
H732        H  0.50590792  0.41127775  0.00872309     0.08900
H733        H  0.50484962  0.41656591  0.02847331     0.12200
H734        H  0.47262237  0.55456420  0.02651346     0.14000
C735        C  0.49227817  0.51189084  0.15402164    -0.01500
C736        C  0.48502607  0.55117220  0.14818335    -0.09500
C737        C  0.48464894  0.55154226  0.13664245    -0.18300
C738        C  0.49187900  0.51239349  0.13054133     0.04100
C739        C  0.49970050  0.47278438  0.13654639     0.18300
C740        C  0.49966732  0.47287986  0.14812146    -0.19700
C741        C  0.50743051  0.43313272  0.13098326    -0.21000
C742        C  0.50712801  0.43170835  0.11953973    -0.19600
C743        C  0.49909075  0.46990042  0.11336170     0.19600
C744        C  0.49155711  0.51091763  0.11873711     0.01800
C745        C  0.48394837  0.54846223  0.11203800    -0.14300
C746        C  0.48368833  0.54524394  0.10052939    -0.12000
C747        C  0.49074366  0.50462901  0.09530330     0.01300
C748        C  0.49848558  0.46714110  0.10180239    -0.24200
H749        H  0.47918901  0.58176702  0.15255554     0.09300
H750        H  0.47855109  0.58294613  0.13274943     0.12900
H751        H  0.50563465  0.44234283  0.15255746     0.11600
H752        H  0.51360490  0.40290049  0.13552193     0.12800
H753        H  0.51307718  0.40040888  0.11548794     0.11800
H754        H  0.47803406  0.58076183  0.11543124     0.08900
H755        H  0.47761092  0.57473781  0.09570045     0.12200
H756        H  0.50423566  0.43557860  0.09785211     0.14000
C757        C  0.50081985  0.98305531  0.02904547    -0.01500
C758        C  0.49983848  0.94246231  0.02354475    -0.09500
C759        C  0.49867284  0.94060964  0.01203247    -0.18300
C760        C  0.49844724  0.97959757  0.00558624     0.04100
C761        C  0.49965645  0.02071829  0.01121598     0.18300
C762        C  0.50073767  0.02206587  0.02279821    -0.19700
C763        C  0.49992238  0.06033283  0.00526210    -0.21000
C764        C  0.49934466  0.06008763  0.99380173    -0.19600
C765        C  0.49820516  0.02022820  0.98799998     0.19600
C766        C  0.49737751  0.97935522  0.99378525     0.01800
C767        C  0.49554844  0.94012764  0.98748503    -0.14300
C768        C  0.49526876  0.94150031  0.97596265    -0.12000
C769        C  0.49676710  0.98183778  0.97031235     0.01300
C770        C  0.49798521  0.02108866  0.97641360    -0.24200
H771        H  0.49999315  0.91182058  0.02816146     0.09300
H772        H  0.49815854  0.90813233  0.00844177     0.12900
H773        H  0.50153978  0.05370747  0.02695543     0.11600
H774        H  0.50081159  0.09177933  0.00950191     0.12800
H775        H  0.49982908  0.09134922  0.98944085     0.11800
H776        H  0.49425923  0.90783368  0.99119882     0.08900
H777        H  0.49396015  0.91069623  0.97145744     0.12200
H778        H  0.49884486  0.05254579  0.97213806     0.14000
C779        C  0.50540465  0.99374627  0.09550387    -0.01500
C780        C  0.51268826  0.03424175  0.10074608    -0.09500
C781        C  0.51363625  0.03720759  0.11222924    -0.18300
C782        C  0.50703924  0.99951596  0.11892842     0.04100
C783        C  0.50027284  0.95833360  0.11357562     0.18300
C784        C  0.49954929  0.95581805  0.10199130    -0.19700
C785        C  0.49405792  0.91991273  0.11981357    -0.21000
C786        C  0.49418188  0.92146951  0.13127651    -0.19600
C787        C  0.50022645  0.96153382  0.13679942     0.19600
C788        C  0.50669566  0.00119880  0.13071974     0.01800
C789        C  0.51205095  0.04083708  0.13672332    -0.14300
C790        C  0.51082304  0.04103476  0.14823611    -0.12000
C791        C  0.50457175  0.00187787  0.15418498     0.01300
C792        C  0.49950841  0.96217813  0.14839366    -0.24200
H793        H  0.51776366  0.06399362  0.09594223     0.09300
H794        H  0.51958353  0.06953312  0.11558729     0.12900
H795        H  0.49407353  0.92425173  0.09802562     0.11600
H796        H  0.48897199  0.88840280  0.11579590     0.12800
H797        H  0.48920666  0.89112074  0.13585856     0.11800
H798        H  0.51694522  0.07234774  0.13278660     0.08900
H799        H  0.51499166  0.07212667  0.15250347     0.12200
H800        H  0.49454120  0.93166488  0.15291490     0.14000
C801        C  0.85627293  0.49509229  0.06134378    -0.01500
C802        C  0.83370239  0.45479848  0.06142410    -0.09500
C803        C  0.78782650  0.45346703  0.06123429    -0.18300
C804        C  0.76263261  0.49271361  0.06099013     0.04100
C805        C  0.78560597  0.53361383  0.06074772     0.18300
C806        C  0.83198344  0.53446018  0.06092480    -0.19700
C807        C  0.76213828  0.57338996  0.06039381    -0.21000
C808        C  0.71625570  0.57347416  0.06039182    -0.19600
C809        C  0.69267394  0.53378877  0.06078196     0.19600
C810        C  0.71554505  0.49280814  0.06105140     0.01800
C811        C  0.69025866  0.45367537  0.06148156    -0.14300
C812        C  0.64439330  0.45517664  0.06171540    -0.12000
C813        C  0.62189989  0.49553213  0.06150072     0.01300
C814        C  0.64628704  0.53480438  0.06098007    -0.24200
H815        H  0.85159597  0.42386322  0.06165967     0.09300
H816        H  0.77323085  0.42109182  0.06131192     0.12900
H817        H  0.84914433  0.56583947  0.06079744     0.11600
H818        H  0.77939634  0.60469221  0.06016599     0.12800
H819        H  0.69908809  0.60483893  0.06015945     0.11800
H820        H  0.70477403  0.42126265  0.06171191     0.08900
H821        H  0.62644261  0.42430866  0.06208294     0.12200
H822        H  0.62919812  0.56623208  0.06079177     0.14000
C823        C  0.12176555  0.49223216  0.06241431    -0.01500
C824        C  0.14410812  0.45341798  0.06528752    -0.09500
C825        C  0.19010646  0.45195733  0.06543001    -0.18300
C826        C  0.21550145  0.48947163  0.06260263     0.04100
C827        C  0.19262112  0.52873860  0.05964617     0.18300
C828        C  0.14629950  0.52980593  0.05961906    -0.19700
C829        C  0.21607479  0.56677027  0.05672701    -0.21000
C830        C  0.26189068  0.56686272  0.05675925    -0.19600
C831        C  0.28543888  0.52889750  0.05968837     0.19600
C832        C  0.26265583  0.48952725  0.06260218     0.01800
C833        C  0.28814118  0.45200035  0.06536828    -0.14300
C834        C  0.33412968  0.45359555  0.06525182    -0.12000
C835        C  0.35637994  0.49255242  0.06245951     0.01300
C836        C  0.33175640  0.53011347  0.05969796    -0.24200
H837        H  0.12592542  0.42395536  0.06751973     0.09300
H838        H  0.20471151  0.42094785  0.06779528     0.12900
H839        H  0.12930666  0.55995156  0.05732851     0.11600
H840        H  0.19884349  0.59674592  0.05442569     0.12800
H841        H  0.27904568  0.59690807  0.05448292     0.11800
H842        H  0.27361518  0.42084954  0.06764201     0.08900
H843        H  0.35237230  0.42410085  0.06742996     0.12200
H844        H  0.34867144  0.56035664  0.05745653     0.14000
C845        C  0.98342553  0.48424043  0.97016366    -0.01500
C846        C  0.97406738  0.44530557  0.97595315    -0.09500
C847        C  0.97401005  0.44456292  0.98747243    -0.18300
C848        C  0.98374868  0.48295437  0.99362888     0.04100
C849        C  0.99296054  0.52245896  0.98769820     0.18300
C850        C  0.99254179  0.52278423  0.97610935    -0.19700
C851        C  0.00281964  0.56141597  0.99335739    -0.21000
C852        C  0.00379840  0.56209067  0.00481293    -0.19600
C853        C  0.99504728  0.52380118  0.01090283     0.19600
C854        C  0.98492932  0.48360408  0.00542448     0.01800
C855        C  0.97673717  0.44585535  0.01201110    -0.14300
C856        C  0.97867654  0.44800272  0.02351273    -0.12000
C857        C  0.98845294  0.48774419  0.02885019     0.01300
C858        C  0.99648964  0.52553735  0.02247270    -0.24200
H859        H  0.96662688  0.41513454  0.97155473     0.09300
H860        H  0.96636397  0.41337248  0.99129481     0.12900
H861        H  0.99989593  0.55309519  0.97170764     0.11600
H862        H  0.00991330  0.59161063  0.98888774     0.12800
H863        H  0.01159471  0.59280295  0.00894258     0.11800
H864        H  0.96882497  0.41413842  0.00854395     0.08900
H865        H  0.97204266  0.41840061  0.02825531     0.12200
H866        H  0.00416976  0.55646701  0.02652337     0.14000
C867        C  0.98796734  0.50939629  0.15394340    -0.01500
C868        C  0.98966706  0.54919230  0.14806088    -0.09500
C869        C  0.98832475  0.54953194  0.13653438    -0.18300
C870        C  0.98514102  0.50977703  0.13047211     0.04100
C871        C  0.98242188  0.46957662  0.13650726     0.18300
C872        C  0.98395189  0.46974512  0.14808660    -0.19700
C873        C  0.97852850  0.42931342  0.13096061    -0.21000
C874        C  0.97806765  0.42791991  0.11950634    -0.19600
C875        C  0.98164398  0.46674021  0.11330117     0.19600
C876        C  0.98494099  0.50831436  0.11867214     0.01800
C877        C  0.98844512  0.54645199  0.11197854    -0.14300
C878        C  0.98911966  0.54331978  0.10048342    -0.12000
C879        C  0.98632342  0.50224825  0.09523940     0.01300
C880        C  0.98232383  0.46410461  0.10172741    -0.24200
H881        H  0.99241490  0.58032090  0.15238265     0.09300
H882        H  0.98999685  0.58144287  0.13262633     0.12900
H883        H  0.98210513  0.43875215  0.15255098     0.11600
H884        H  0.97614149  0.39859201  0.13551795     0.12800
H885        H  0.97532253  0.39615820  0.11546845     0.11800
H886        H  0.99104006  0.57919084  0.11535951     0.08900
H887        H  0.99211495  0.57334455  0.09567700     0.12200
H888        H  0.97992088  0.43214263  0.09776687     0.14000
C889        C  0.87007118  0.98130016  0.06248777    -0.01500
C890        C  0.84783917  0.94081087  0.06291749    -0.09500
C891        C  0.80177219  0.93922425  0.06298680    -0.18300
C892        C  0.77633444  0.97837881  0.06261684     0.04100
C893        C  0.79920198  0.01931874  0.06221537     0.18300
C894        C  0.84542299  0.02038238  0.06216774    -0.19700
C895        C  0.77588316  0.05911546  0.06182480    -0.21000
C896        C  0.73013936  0.05927711  0.06174909    -0.19600
C897        C  0.70656045  0.01965030  0.06209145     0.19600
C898        C  0.72917287  0.97855358  0.06257920     0.01800
C899        C  0.70349615  0.93959641  0.06297981    -0.14300
C900        C  0.65745597  0.94150526  0.06283132    -0.12000
C901        C  0.63546639  0.98212989  0.06228194     0.01300
C902        C  0.66033998  0.02103657  0.06193635    -0.24200
H903        H  0.86611810  0.91011173  0.06319369     0.09300
H904        H  0.78711240  0.90687062  0.06330374     0.12900
H905        H  0.86225682  0.05192714  0.06185945     0.11600
H906        H  0.79316805  0.09039964  0.06153404     0.12800
H907        H  0.71306300  0.09068037  0.06140177     0.11800
H908        H  0.71794484  0.90715729  0.06341379     0.08900
H909        H  0.63900169  0.91093221  0.06315230     0.12200
H910        H  0.64368765  0.05267742  0.06154940     0.14000
C911        C  0.13542552  0.99273315  0.06288092    -0.01500
C912        C  0.15740323  0.03315885  0.06175379    -0.09500
C913        C  0.20345021  0.03506201  0.06167625    -0.18300
C914        C  0.22916090  0.99631158  0.06276279     0.04100
C915        C  0.20657397  0.95547240  0.06402233     0.18300
C916        C  0.16033305  0.95406606  0.06404318    -0.19700
C917        C  0.23020347  0.91612304  0.06524061    -0.21000
C918        C  0.27595925  0.91628686  0.06519410    -0.19600
C919        C  0.29924967  0.95578634  0.06389374     0.19600
C920        C  0.27633212  0.99645215  0.06265333     0.01800
C921        C  0.30172987  0.03529474  0.06133184    -0.14300
C922        C  0.34780293  0.03369255  0.06129247    -0.12000
C923        C  0.37009479  0.99348390  0.06253346     0.01300
C924        C  0.34548684  0.95469475  0.06381814    -0.24200
H925        H  0.13892935  0.06355524  0.06086051     0.09300
H926        H  0.21788031  0.06733880  0.06075351     0.12900
H927        H  0.14368913  0.92261070  0.06497663     0.11600
H928        H  0.21315690  0.88493030  0.06623096     0.12800
H929        H  0.29327487  0.88521725  0.06615440     0.11800
H930        H  0.28703040  0.06740051  0.06028804     0.08900
H931        H  0.36604367  0.06414113  0.06024479     0.12200
H932        H  0.36236810  0.92337380  0.06478853     0.14000
C933        C  0.99719702  0.98432522  0.97053755    -0.01500
C934        C  0.99720367  0.94376206  0.97610248    -0.09500
C935        C  0.99883018  0.94192896  0.98761289    -0.18300
C936        C  0.00057455  0.98090692  0.99400553     0.04100
C937        C  0.00060960  0.02201682  0.98831636     0.18300
C938        C  0.99891969  0.02335079  0.97672805    -0.19700
C939        C  0.00228555  0.06162389  0.99422006    -0.21000
C940        C  0.00359512  0.06139283  0.00568177    -0.19600
C941        C  0.00335783  0.02154752  0.01154267     0.19600
C942        C  0.00208884  0.98066408  0.00580983     0.01800
C943        C  0.00224509  0.94142408  0.01216515    -0.14300
C944        C  0.00310199  0.94281559  0.02368768    -0.12000
C945        C  0.00382880  0.98318276  0.02929490     0.01300
C946        C  0.00417638  0.02243236  0.02313519    -0.24200
H947        H  0.99596431  0.91310100  0.97153577     0.09300
H948        H  0.99862992  0.90946231  0.99124420     0.12900
H949        H  0.99907946  0.05496725  0.97252196     0.11600
H950        H  0.00242131  0.09306550  0.98993999     0.12800
H951        H  0.00467987  0.09266425  0.00999854     0.11800
H952        H  0.00159990  0.90909105  0.00849596     0.08900
H953        H  0.00292168  0.91199575  0.02822958     0.12200
H954        H  0.00490208  0.05390807  0.02737057     0.14000
C955        C  0.99972185  0.99158702  0.09579619    -0.01500
C956        C  0.98870383  0.03123590  0.10103457    -0.09500
C957        C  0.98755628  0.03416404  0.11251072    -0.18300
C958        C  0.99785419  0.99734115  0.11921651     0.04100
C959        C  0.00866345  0.95698992  0.11387587     0.18300
C960        C  0.00928723  0.95441414  0.10228380    -0.19700
C961        C  0.01913581  0.91955496  0.12013610    -0.21000
C962        C  0.01935954  0.92133410  0.13160393    -0.19600
C963        C  0.00917856  0.96061069  0.13711182     0.19600
C964        C  0.99820042  0.99920588  0.13100370     0.01800
C965        C  0.98848404  0.03808998  0.13697223    -0.14300
C966        C  0.99014973  0.03872168  0.14846964    -0.12000
C967        C  0.00103478  0.00069942  0.15445236     0.01300
C968        C  0.01020466  0.96160785  0.14871298    -0.24200
H969        H  0.98076112  0.06034473  0.09622801     0.09300
H970        H  0.97867089  0.06584307  0.11585135     0.12900
H971        H  0.01781797  0.92353317  0.09831223     0.11600
H972        H  0.02741081  0.88869008  0.11613168     0.12800
H973        H  0.02778984  0.89179932  0.13620023     0.11800
H974        H  0.97968226  0.06870857  0.13302520     0.08900
H975        H  0.98250996  0.06922838  0.15270738     0.12200
H976        H  0.01870343  0.93199115  0.15327630     0.14000
C977        C  0.52168794  0.50750427  0.47025297    -0.01500
C978        C  0.55992954  0.49524297  0.47594100    -0.09500
C979        C  0.56123736  0.49584760  0.48744922    -0.18300
C980        C  0.52418435  0.50930025  0.49370110     0.04100
C981        C  0.48539261  0.52168920  0.48788062     0.18300
C982        C  0.48443400  0.52050811  0.47628715    -0.19700
C983        C  0.44776963  0.53519282  0.49366105    -0.21000
C984        C  0.44753560  0.53602884  0.50513142    -0.19600
C985        C  0.48502236  0.52368640  0.51111698     0.19600
C986        C  0.52411153  0.51068507  0.50549354     0.01800
C987        C  0.56139636  0.49966453  0.51193409    -0.14300
C988        C  0.55966066  0.50076445  0.52343044    -0.12000
C989        C  0.52079488  0.51249884  0.52893678     0.01300
C990        C  0.48360506  0.52414589  0.52271690    -0.24200
H991        H  0.58904214  0.48480134  0.47146528     0.09300
H992        H  0.59175106  0.48549649  0.49118178     0.12900
H993        H  0.45473344  0.53027748  0.47194624     0.11600
H994        H  0.41817395  0.54490950  0.48927759     0.12800
H995        H  0.41775059  0.54631723  0.50935416     0.11800
H996        H  0.59246252  0.49005958  0.50836127     0.08900
H997        H  0.58888996  0.49171882  0.52804172     0.12200
H998        H  0.45350442  0.53375187  0.52690930     0.14000
C999        C  0.51631334  0.87591747  0.43657825    -0.01500
C1000       C  0.47676174  0.85337193  0.43846418    -0.09500
C1001       C  0.47555441  0.80739528  0.43855495    -0.18300
C1002       C  0.51415218  0.78224099  0.43670860     0.04100
C1003       C  0.55410281  0.80530340  0.43458538     0.18300
C1004       C  0.55485621  0.85164753  0.43457483    -0.19700
C1005       C  0.59311330  0.78199870  0.43254430    -0.21000
C1006       C  0.59348370  0.73612847  0.43270668    -0.19600
C1007       C  0.55487400  0.71244620  0.43493979     0.19600
C1008       C  0.51457917  0.73512979  0.43692967     0.01800
C1009       C  0.47651541  0.70962716  0.43911283    -0.14300
C1010       C  0.47837864  0.66369402  0.43926792    -0.12000
C1011       C  0.51809962  0.64151217  0.43732996     0.01300
C1012       C  0.55630955  0.66610993  0.43519633    -0.24200
H1013       H  0.44651047  0.87136278  0.44000386     0.09300
H1014       H  0.44386040  0.79267174  0.44012503     0.12900
H1015       H  0.58558718  0.86884278  0.43300826     0.11600
H1016       H  0.62361874  0.79937991  0.43085664     0.12800
H1017       H  0.62425487  0.71905407  0.43112969     0.11800
H1018       H  0.44473103  0.72403985  0.44074747     0.08900
H1019       H  0.44842201  0.64543359  0.44096479     0.12200
H1020       H  0.58718484  0.64917705  0.43362738     0.14000
C1021       C  0.52108399  0.14142642  0.43731218    -0.01500
C1022       C  0.56143592  0.16369519  0.43788430    -0.09500
C1023       C  0.56314952  0.20965074  0.43754726    -0.18300
C1024       C  0.52425328  0.23512910  0.43660124     0.04100
C1025       C  0.48328876  0.21240414  0.43607810     0.18300
C1026       C  0.48206898  0.16604980  0.43642245    -0.19700
C1027       C  0.44377767  0.23607136  0.43525171    -0.21000
C1028       C  0.44397937  0.28195555  0.43508321    -0.19600
C1029       C  0.48372018  0.30531379  0.43564840     0.19600
C1030       C  0.52449830  0.28226301  0.43627192     0.01800
C1031       C  0.56372564  0.30745267  0.43657377    -0.14300
C1032       C  0.56242226  0.35344800  0.43654994    -0.12000
C1033       C  0.52216852  0.37602641  0.43622236     0.01300
C1034       C  0.48290677  0.35169022  0.43566236    -0.24200
H1035       H  0.59205315  0.14549969  0.43860137     0.09300
H1036       H  0.59548023  0.22413007  0.43810285     0.12900
H1037       H  0.45062599  0.14913756  0.43596136     0.11600
H1038       H  0.41244444  0.21897453  0.43482057     0.12800
H1039       H  0.41279408  0.29930509  0.43454062     0.11800
H1040       H  0.59601731  0.29271818  0.43684435     0.08900
H1041       H  0.59325593  0.37142090  0.43688312     0.12200
H1042       H  0.45155807  0.36884380  0.43528797     0.14000
C1043       C  0.52090664  0.00511325  0.47045568    -0.01500
C1044       C  0.56122226  0.00075229  0.47598862    -0.09500
C1045       C  0.56304078  0.00018854  0.48749216    -0.18300
C1046       C  0.52431289  0.00417366  0.49391536     0.04100
C1047       C  0.48337003  0.00791365  0.48826289     0.18300
C1048       C  0.48202941  0.00828816  0.47666813    -0.19700
C1049       C  0.44398219  0.01155769  0.49421043    -0.21000
C1050       C  0.44431130  0.01188492  0.50567248    -0.19600
C1051       C  0.48404673  0.00872364  0.51148253     0.19600
C1052       C  0.52468825  0.00479966  0.50571505     0.01800
C1053       C  0.56385512  0.00205721  0.51202951    -0.14300
C1054       C  0.56260349  0.00321638  0.52355044    -0.12000
C1055       C  0.52244397  0.00699748  0.52917646     0.01300
C1056       C  0.48329562  0.00966440  0.52306061    -0.24200
H1057       H  0.59174751  0.99785491  0.47140065     0.09300
H1058       H  0.59531283  0.99671119  0.49108981     0.12900
H1059       H  0.45061031  0.01146351  0.47247916     0.11600
H1060       H  0.41266450  0.01432164  0.48996430     0.12800
H1061       H  0.41322679  0.01486212  0.51002834     0.11800
H1062       H  0.59602574  0.99918216  0.50833084     0.08900
H1063       H  0.59331936  0.00107185  0.52807216     0.12200
H1064       H  0.45198526  0.01268171  0.52731954     0.14000
C1065       C  0.01381844  0.50029288  0.47019197    -0.01500
C1066       C  0.05389057  0.50156850  0.47592115    -0.09500
C1067       C  0.05471293  0.50145391  0.48744243    -0.18300
C1068       C  0.01518350  0.49993690  0.49364333     0.04100
C1069       C  0.97464027  0.49899189  0.48776121     0.18300
C1070       C  0.97433653  0.49924276  0.47618927    -0.19700
C1071       C  0.93451431  0.49758018  0.49344600    -0.21000
C1072       C  0.93364924  0.49679251  0.50489290    -0.19600
C1073       C  0.97288930  0.49741448  0.51094218     0.19600
C1074       C  0.01429192  0.49911383  0.50543512     0.01800
C1075       C  0.05286021  0.49969255  0.51199148    -0.14300
C1076       C  0.05030425  0.49846058  0.52349298    -0.12000
C1077       C  0.00940133  0.49665569  0.52885419     0.01300
C1078       C  0.97084420  0.49622116  0.52250301    -0.24200
H1079       H  0.08488635  0.50260066  0.47148140     0.09300
H1080       H  0.08680615  0.50244366  0.49123130     0.12900
H1081       H  0.94312011  0.49837698  0.47184097     0.11600
H1082       H  0.90352535  0.49692253  0.48900239     0.12800
H1083       H  0.90201028  0.49555647  0.50904772     0.11800
H1084       H  0.08550546  0.50100285  0.50849986     0.08900
H1085       H  0.08061894  0.49889571  0.52820865     0.12200
H1086       H  0.93899789  0.49486866  0.52656361     0.14000
C1087       C  0.00214738  0.86727876  0.43759640    -0.01500
C1088       C  0.96423100  0.84470307  0.43424453    -0.09500
C1089       C  0.96346496  0.79862283  0.43396520    -0.18300
C1090       C  0.00074667  0.77355553  0.43716510     0.04100
C1091       C  0.03901664  0.79680168  0.44062678     0.18300
C1092       C  0.03941414  0.84307833  0.44076275    -0.19700
C1093       C  0.07678597  0.77379631  0.44392439    -0.21000
C1094       C  0.07764124  0.72799636  0.44377077    -0.19600
C1095       C  0.04070172  0.70406592  0.44034870     0.19600
C1096       C  0.00156074  0.72639377  0.43705895     0.01800
C1097       C  0.96500936  0.70045921  0.43384605    -0.14300
C1098       C  0.96733565  0.65445478  0.43390511    -0.12000
C1099       C  0.00613348  0.63275496  0.43704165     0.01300
C1100       C  0.04271893  0.65779515  0.44023157    -0.24200
H1101       H  0.93514790  0.86276488  0.43168102     0.09300
H1102       H  0.93324684  0.78369070  0.43118308     0.12900
H1103       H  0.06886234  0.86033965  0.44341567     0.11600
H1104       H  0.10597096  0.79137219  0.44661169     0.12800
H1105       H  0.10745860  0.71115953  0.44634423     0.11800
H1106       H  0.93410376  0.71464075  0.43127597     0.08900
H1107       H  0.93863963  0.63576077  0.43138062     0.12200
H1108       H  0.07276534  0.64120951  0.44275666     0.14000
C1109       C  0.01164938  0.13264199  0.43718197    -0.01500
C1110       C  0.05042439  0.15412992  0.43391676    -0.09500
C1111       C  0.05277735  0.20015048  0.43367691    -0.18300
C1112       C  0.01627671  0.22634528  0.43682757     0.04100
C1113       C  0.97707562  0.20424933  0.44018068     0.18300
C1114       C  0.97506164  0.15795971  0.44026846    -0.19700
C1115       C  0.94004223  0.22843148  0.44345472    -0.21000
C1116       C  0.94086700  0.27423431  0.44341046    -0.19600
C1117       C  0.97875815  0.29701586  0.44010041     0.19600
C1118       C  0.01715578  0.27354121  0.43679829     0.01800
C1119       C  0.05463643  0.29843443  0.43364793    -0.14300
C1120       C  0.05385975  0.34456497  0.43378086    -0.12000
C1121       C  0.01574682  0.36737148  0.43694374     0.01300
C1122       C  0.97835353  0.34330200  0.44008909    -0.24200
H1123       H  0.07909179  0.13525035  0.43143433     0.09300
H1124       H  0.08362811  0.21415892  0.43099897     0.12900
H1125       H  0.94498634  0.14158549  0.44286081     0.11600
H1126       H  0.91015319  0.21178821  0.44605822     0.12800
H1127       H  0.91158350  0.29199126  0.44597784     0.11800
H1128       H  0.08505351  0.28330440  0.43104765     0.08900
H1129       H  0.08313619  0.36246321  0.43128320     0.12200
H1130       H  0.94877199  0.36067369  0.44262411     0.14000
C1131       C  0.00482089  0.99563550  0.52942439    -0.01500
C1132       C  0.96543315  0.00421811  0.52380139    -0.09500
C1133       C  0.96436372  0.00584928  0.51231621    -0.18300
C1134       C  0.00291619  0.99863027  0.50599992     0.04100
C1135       C  0.04289778  0.99005542  0.51174047     0.18300
C1136       C  0.04353240  0.98878328  0.52333437    -0.19700
C1137       C  0.08198549  0.98268750  0.50587654    -0.21000
C1138       C  0.08229862  0.98366624  0.49440497    -0.19600
C1139       C  0.04351918  0.99197737  0.48850376     0.19600
C1140       C  0.00321624  0.99950411  0.49421606     0.01800
C1141       C  0.96492310  0.00736129  0.48787205    -0.14300
C1142       C  0.96657233  0.00757775  0.47638849    -0.12000
C1143       C  0.00630088  0.00026747  0.47078171     0.01300
C1144       C  0.04475390  0.99261969  0.47690144    -0.24200
H1145       H  0.93511074  0.00996413  0.52830668     0.09300
H1146       H  0.93276797  0.01282320  0.50866408     0.12900
H1147       H  0.07420608  0.98213977  0.52761633     0.11600
H1148       H  0.11256666  0.97608468  0.51019554     0.12800
H1149       H  0.11311129  0.97779654  0.49011527     0.11800
H1150       H  0.93305703  0.01330246  0.49149973     0.08900
H1151       H  0.93636678  0.01366185  0.47187044     0.12200
H1152       H  0.07563002  0.98671474  0.47263546     0.14000
C1153       C  0.50174023  0.50988374  0.27886179    -0.01500
C1154       C  0.53404748  0.48624457  0.27312092    -0.09500
C1155       C  0.53325245  0.48387153  0.26163254    -0.18300
C1156       C  0.50040779  0.50606521  0.25548111     0.04100
C1157       C  0.46864566  0.53138887  0.26135628     0.18300
C1158       C  0.46892952  0.53217562  0.27294788    -0.19700
C1159       C  0.43727327  0.55634017  0.25562275    -0.21000
C1160       C  0.43718031  0.55728036  0.24415321    -0.19600
C1161       C  0.46733797  0.53192743  0.23813899     0.19600
C1162       C  0.49852462  0.50485366  0.24371594     0.01800
C1163       C  0.52605187  0.47736185  0.23726813    -0.14300
C1164       C  0.52345884  0.47774370  0.22577187    -0.12000
C1165       C  0.49428323  0.50616836  0.22035481     0.01300
C1166       C  0.46629802  0.53319744  0.22655678    -0.24200
H1167       H  0.55986156  0.46902019  0.27755916     0.09300
H1168       H  0.55939347  0.46529781  0.25779952     0.12900
H1169       H  0.44433701  0.55119545  0.27737320     0.11600
H1170       H  0.41315524  0.57593685  0.26004127     0.12800
H1171       H  0.41300473  0.57759618  0.23995430     0.11800
H1172       H  0.54930451  0.45462173  0.24086593     0.08900
H1173       H  0.54501578  0.45631468  0.22107079     0.12200
H1174       H  0.44301061  0.55453039  0.22234272     0.14000
C1175       C  0.51178086  0.51440889  0.34516627    -0.01500
C1176       C  0.55219509  0.52176044  0.35043517    -0.09500
C1177       C  0.55509448  0.52243910  0.36192091    -0.18300
C1178       C  0.51742675  0.51540795  0.36858068     0.04100
C1179       C  0.47648598  0.50781117  0.36318732     0.18300
C1180       C  0.47399931  0.50761888  0.35161057    -0.19700
C1181       C  0.43825911  0.50019180  0.36937272    -0.21000
C1182       C  0.43974089  0.49978970  0.38082808    -0.19600
C1183       C  0.47945839  0.50713461  0.38639166     0.19600
C1184       C  0.51890500  0.51525651  0.38037011     0.01800
C1185       C  0.55806078  0.52264208  0.38643109    -0.14300
C1186       C  0.55807440  0.52128579  0.39794429    -0.12000
C1187       C  0.51918905  0.51286275  0.40382020     0.01300
C1188       C  0.47993006  0.50614776  0.39797381    -0.24200
H1189       H  0.58188405  0.52722914  0.34564992     0.09300
H1190       H  0.58736149  0.52833049  0.36531220     0.12900
H1191       H  0.44258899  0.50171221  0.34761229     0.11600
H1192       H  0.40697821  0.49430818  0.36531855     0.12800
H1193       H  0.40957145  0.49358821  0.38537298     0.11800
H1194       H  0.58926803  0.52946425  0.38254109     0.08900
H1195       H  0.58878546  0.52698842  0.40226729     0.12200
H1196       H  0.44961994  0.49968604  0.40244444     0.14000
C1197       C  0.51034442  0.64558169  0.31154831    -0.01500
C1198       C  0.55068561  0.66782222  0.31225195    -0.09500
C1199       C  0.55228914  0.71385970  0.31219676    -0.18300
C1200       C  0.51329988  0.73932387  0.31138954     0.04100
C1201       C  0.47245454  0.71650754  0.31061513     0.18300
C1202       C  0.47135401  0.67020359  0.31071570    -0.19700
C1203       C  0.43286246  0.73999224  0.30978416    -0.21000
C1204       C  0.43281871  0.78582710  0.30982528    -0.19600
C1205       C  0.47237655  0.80931303  0.31066894     0.19600
C1206       C  0.51326913  0.78649035  0.31138171     0.01800
C1207       C  0.55225631  0.81194755  0.31208428    -0.14300
C1208       C  0.55059057  0.85797555  0.31218282    -0.12000
C1209       C  0.51018872  0.88022615  0.31163097     0.01300
C1210       C  0.47120590  0.85562035  0.31083496    -0.24200
H1211       H  0.58127586  0.64955452  0.31292532     0.09300
H1212       H  0.58456034  0.72843225  0.31283649     0.12900
H1213       H  0.43993945  0.65329837  0.31012598     0.11600
H1214       H  0.40164831  0.72277630  0.30915383     0.12800
H1215       H  0.40157212  0.80303943  0.30922822     0.11800
H1216       H  0.58458603  0.79737638  0.31257863     0.08900
H1217       H  0.58119430  0.87622825  0.31277647     0.12200
H1218       H  0.43975810  0.87253915  0.31031964     0.14000
C1219       C  0.50155144  0.14562469  0.31230551    -0.01500
C1220       C  0.46197208  0.16781266  0.31444998    -0.09500
C1221       C  0.46020534  0.21384680  0.31437442    -0.18300
C1222       C  0.49821043  0.23932313  0.31206587     0.04100
C1223       C  0.53824071  0.21652435  0.30984207     0.18300
C1224       C  0.53956450  0.17024381  0.31001767    -0.19700
C1225       C  0.57681912  0.23999659  0.30747115    -0.21000
C1226       C  0.57676013  0.28581354  0.30740846    -0.19600
C1227       C  0.53809739  0.30928394  0.30968936     0.19600
C1228       C  0.49809924  0.28648331  0.31194536     0.01800
C1229       C  0.45987488  0.31196439  0.31401129    -0.14300
C1230       C  0.46155219  0.35800464  0.31398965    -0.12000
C1231       C  0.50124452  0.38018852  0.31197386     0.01300
C1232       C  0.53932923  0.35556535  0.30976791    -0.24200
H1233       H  0.43216344  0.14949928  0.31626908     0.09300
H1234       H  0.42862346  0.22841389  0.31618016     0.12900
H1235       H  0.57031998  0.15333836  0.30828837     0.11600
H1236       H  0.60735932  0.22278608  0.30571471     0.12800
H1237       H  0.60726248  0.30302815  0.30561189     0.11800
H1238       H  0.42817777  0.29739708  0.31568645     0.08900
H1239       H  0.43161286  0.37631951  0.31566512     0.12200
H1240       H  0.57011519  0.37246763  0.30807036     0.14000
C1241       C  0.50197021  0.00503009  0.22055249    -0.01500
C1242       C  0.47396740  0.97655664  0.22633758    -0.09500
C1243       C  0.47221900  0.97751759  0.23784189    -0.18300
C1244       C  0.49949292  0.00642202  0.24393353     0.04100
C1245       C  0.52967775  0.03345305  0.23800189     0.18300
C1246       C  0.52976231  0.03343842  0.22640860    -0.19700
C1247       C  0.55991011  0.05987289  0.24368036    -0.21000
C1248       C  0.56103533  0.05978135  0.25515171    -0.19600
C1249       C  0.53065837  0.03479967  0.26121829     0.19600
C1250       C  0.49854820  0.00880389  0.25569224     0.01800
C1251       C  0.46641651  0.98697248  0.26217155    -0.14300
C1252       C  0.46715321  0.98964935  0.27366461    -0.12000
C1253       C  0.50032831  0.01327152  0.27905865     0.01300
C1254       C  0.53193440  0.03590083  0.27279806    -0.24200
H1255       H  0.45269479  0.95397029  0.22191897     0.09300
H1256       H  0.44995567  0.95456429  0.24174274     0.12900
H1257       H  0.55227259  0.05473517  0.22192175     0.11600
H1258       H  0.58334619  0.08017662  0.23921714     0.12800
H1259       H  0.58536665  0.07996136  0.25930906     0.11800
H1260       H  0.43982687  0.96828771  0.25858766     0.08900
H1261       H  0.44216632  0.97232331  0.27837235     0.12200
H1262       H  0.55712901  0.05503083  0.27695816     0.14000
C1263       C  0.51785757  0.01056871  0.40400620    -0.01500
C1264       C  0.55645260  0.00050489  0.39817927    -0.09500
C1265       C  0.55691124  0.00034243  0.38667108    -0.18300
C1266       C  0.51855993  0.01064819  0.38055569     0.04100
C1267       C  0.47953802  0.02119289  0.38652029     0.18300
C1268       C  0.47948307  0.02086979  0.39811305    -0.19700
C1269       C  0.44074344  0.03196231  0.38088641    -0.21000
C1270       C  0.43964287  0.03208342  0.36942653    -0.19600
C1271       C  0.47732120  0.02148491  0.36330798     0.19600
C1272       C  0.51744732  0.01083526  0.36876490     0.01800
C1273       C  0.55462700  0.00085819  0.36216323    -0.14300
C1274       C  0.55198573  0.00145085  0.35066893    -0.12000
C1275       C  0.51229083  0.01159881  0.34534859     0.01300
C1276       C  0.47505734  0.02152552  0.35173332    -0.24200
H1277       H  0.58651639  0.99226736  0.40254210     0.09300
H1278       H  0.58782460  0.99195710  0.38283004     0.12900
H1279       H  0.44950564  0.02893541  0.40255734     0.11600
H1280       H  0.41095721  0.04022837  0.38537883     0.12800
H1281       H  0.40902845  0.04044723  0.36531589     0.11800
H1282       H  0.58627707  0.99250178  0.36560611     0.08900
H1283       H  0.58120379  0.99355659  0.34591811     0.12200
H1284       H  0.44424495  0.02971123  0.34768361     0.14000
C1285       C  0.99008084  0.50257126  0.27892387    -0.01500
C1286       C  0.95998659  0.47598798  0.27327903    -0.09500
C1287       C  0.95921210  0.47547887  0.26175508    -0.18300
C1288       C  0.98804257  0.50254531  0.25552273     0.04100
C1289       C  0.01683496  0.53122318  0.26135085     0.18300
C1290       C  0.01836273  0.53017629  0.27292608    -0.19700
C1291       C  0.04367480  0.56098904  0.25559778    -0.21000
C1292       C  0.04250061  0.56298811  0.24413932    -0.19600
C1293       C  0.01579319  0.53404596  0.23813809     0.19600
C1294       C  0.98897444  0.50263921  0.24373863     0.01800
C1295       C  0.96505779  0.47205952  0.23729583    -0.14300
C1296       C  0.96714383  0.47317691  0.22579570    -0.12000
C1297       C  0.99214864  0.50531036  0.22033888     0.01300
C1298       C  0.01623819  0.53583953  0.22654585    -0.24200
H1299       H  0.93751696  0.45484642  0.27780394     0.09300
H1300       H  0.93515484  0.45420013  0.25796520     0.12900
H1301       H  0.04099547  0.55159377  0.27730642     0.11600
H1302       H  0.06534817  0.58326476  0.25999882     0.12800
H1303       H  0.06326326  0.58678505  0.23993318     0.11800
H1304       H  0.94528113  0.44624391  0.24090304     0.08900
H1305       H  0.94851865  0.44911142  0.22112529     0.12200
H1306       H  0.03629845  0.56025538  0.22233453     0.14000
C1307       C  0.00185856  0.50578720  0.34519613    -0.01500
C1308       C  0.04293854  0.50707961  0.35044691    -0.09500
C1309       C  0.04595852  0.50751483  0.36192257    -0.18300
C1310       C  0.00769221  0.50651667  0.36859336     0.04100
C1311       C  0.96601341  0.50603843  0.36322594     0.18300
C1312       C  0.96347736  0.50570383  0.35165211    -0.19700
C1313       C  0.92709379  0.50551730  0.36943670    -0.21000
C1314       C  0.92861260  0.50481610  0.38089541    -0.19600
C1315       C  0.96908901  0.50453010  0.38642894     0.19600
C1316       C  0.00925796  0.50560998  0.38037088     0.01800
C1317       C  0.04921491  0.50527886  0.38637739    -0.14300
C1318       C  0.04922337  0.50372030  0.39787370    -0.12000
C1319       C  0.00960338  0.50242043  0.40380034     0.01300
C1320       C  0.96961084  0.50294644  0.39801151    -0.24200
H1321       H  0.07311318  0.50754411  0.34566028     0.09300
H1322       H  0.07878279  0.50843507  0.36528988     0.12900
H1323       H  0.93148499  0.50501851  0.34767109     0.11600
H1324       H  0.89522003  0.50536490  0.36540077     0.12800
H1325       H  0.89787819  0.50417174  0.38546319     0.11800
H1326       H  0.08108999  0.50601641  0.38246349     0.08900
H1327       H  0.08058693  0.50343370  0.40214106     0.12200
H1328       H  0.93873128  0.50213081  0.40252318     0.14000
C1329       C  0.98798888  0.87001894  0.31147944    -0.01500
C1330       C  0.94759422  0.84798942  0.31254406    -0.09500
C1331       C  0.94573292  0.80186388  0.31245733    -0.18300
C1332       C  0.98448758  0.77624804  0.31125186     0.04100
C1333       C  0.02520787  0.79899049  0.31000071     0.18300
C1334       C  0.02655791  0.84520083  0.31014927    -0.19700
C1335       C  0.06457268  0.77557390  0.30866526    -0.21000
C1336       C  0.06461412  0.72982119  0.30866595    -0.19600
C1337       C  0.02529912  0.70635006  0.31001771     0.19600
C1338       C  0.98454727  0.72904154  0.31128593     0.01800
C1339       C  0.94588747  0.70338314  0.31259285    -0.14300
C1340       C  0.94782107  0.65726696  0.31267462    -0.12000
C1341       C  0.98819244  0.63527696  0.31149615     0.01300
C1342       C  0.02671841  0.66013781  0.31014773    -0.24200
H1343       H  0.91728488  0.86646239  0.31356439     0.09300
H1344       H  0.91354578  0.78728286  0.31338440     0.12900
H1345       H  0.05796245  0.86191913  0.30923306     0.11600
H1346       H  0.09564596  0.79278867  0.30766203     0.12800
H1347       H  0.09571597  0.71265074  0.30765892     0.11800
H1348       H  0.91371909  0.71792382  0.31360663     0.08900
H1349       H  0.91755894  0.63876589  0.31373987     0.12200
H1350       H  0.05812884  0.64346149  0.30918370     0.14000
C1351       C  0.00319860  0.13513661  0.31358123    -0.01500
C1352       C  0.04287106  0.15713396  0.31137514    -0.09500
C1353       C  0.04478819  0.20324959  0.31135188    -0.18300
C1354       C  0.00682936  0.22893996  0.31358605     0.04100
C1355       C  0.96693022  0.20626439  0.31603251     0.18300
C1356       C  0.96549796  0.16001274  0.31599358    -0.19700
C1357       C  0.92842796  0.22980638  0.31841152    -0.21000
C1358       C  0.92835606  0.27558287  0.31824305    -0.19600
C1359       C  0.96678564  0.29897442  0.31569186     0.19600
C1360       C  0.00674505  0.27616116  0.31340201     0.01800
C1361       C  0.04459091  0.30171341  0.31094905    -0.14300
C1362       C  0.04258664  0.34782822  0.31069658    -0.12000
C1363       C  0.00292996  0.36997067  0.31283143     0.01300
C1364       C  0.96525654  0.34521262  0.31536677    -0.24200
H1365       H  0.07251669  0.13863512  0.30951251     0.09300
H1366       H  0.07635881  0.21776407  0.30949179     0.12900
H1367       H  0.93470240  0.14331842  0.31780721     0.11600
H1368       H  0.89800550  0.21267054  0.32033792     0.12800
H1369       H  0.89788300  0.29283171  0.32004890     0.11800
H1370       H  0.07616492  0.28708656  0.30914986     0.08900
H1371       H  0.07220660  0.36620937  0.30873574     0.12200
H1372       H  0.93444303  0.36199025  0.31710819     0.14000
C1373       C  0.00100868  0.00972944  0.22078101    -0.01500
C1374       C  0.97210375  0.03840454  0.22620115    -0.09500
C1375       C  0.96975434  0.03897515  0.23771300    -0.18300
C1376       C  0.99727524  0.01144515  0.24416973     0.04100
C1377       C  0.02815006  0.98408423  0.23857629     0.18300
C1378       C  0.02895031  0.98265383  0.22699527    -0.19700
C1379       C  0.05823881  0.95854478  0.24456888    -0.21000
C1380       C  0.05838651  0.95954468  0.25603144    -0.19600
C1381       C  0.02737667  0.98482364  0.26178776     0.19600
C1382       C  0.99570785  0.01042242  0.25595309     0.01800
C1383       C  0.96335935  0.03309900  0.26217244    -0.14300
C1384       C  0.96298708  0.03090563  0.27368837    -0.12000
C1385       C  0.99526507  0.00696318  0.27937014     0.01300
C1386       C  0.02748020  0.98415229  0.27337190    -0.24200
H1387       H  0.95053982  0.05984479  0.22149504     0.09300
H1388       H  0.94665327  0.06182207  0.24131884     0.12900
H1389       H  0.05200692  0.96108814  0.22278554     0.11600
H1390       H  0.08216329  0.93800459  0.24035671     0.12800
H1391       H  0.08244720  0.93977378  0.26043038     0.11800
H1392       H  0.93737211  0.05201325  0.25837013     0.08900
H1393       H  0.93763909  0.04854513  0.27818422     0.12200
H1394       H  0.05208403  0.96490417  0.27774052     0.14000
C1395       C  0.99623661  0.99833434  0.34573381    -0.01500
C1396       C  0.95693561  0.99213666  0.35160102    -0.09500
C1397       C  0.95677672  0.99132194  0.36311207    -0.18300
C1398       C  0.99619483  0.99699209  0.36918516     0.04100
C1399       C  0.03604745  0.00297064  0.36318216     0.18300
C1400       C  0.03572447  0.00350556  0.35159499    -0.19700
C1401       C  0.07601743  0.00854326  0.36877044    -0.21000
C1402       C  0.07736374  0.00830844  0.38023220    -0.19600
C1403       C  0.03874032  0.00272344  0.38639846     0.19600
C1404       C  0.99753821  0.99709697  0.38097024     0.01800
C1405       C  0.95946441  0.99215365  0.38758755    -0.14300
C1406       C  0.96219521  0.99294212  0.39906001    -0.12000
C1407       C  0.00282189  0.99835195  0.40437595     0.01300
C1408       C  0.04105318  0.00301416  0.39798467    -0.24200
H1409       H  0.92601447  0.98778611  0.34727278     0.09300
H1410       H  0.92521439  0.98621966  0.36698537     0.12900
H1411       H  0.06634922  0.00834904  0.34713171     0.11600
H1412       H  0.10650369  0.01313610  0.36423955     0.12800
H1413       H  0.10885056  0.01271492  0.38430468     0.11800
H1414       H  0.92697874  0.98786106  0.38417786     0.08900
H1415       H  0.93213710  0.98910734  0.40380026     0.12200
H1416       H  0.07262933  0.00737808  0.40202562     0.14000
C1417       C  0.48231008  0.48927433  0.84507897    -0.01500
C1418       C  0.48051029  0.44825966  0.85040224    -0.09500
C1419       C  0.47963952  0.44545217  0.86189248    -0.18300
C1420       C  0.48061456  0.48387379  0.86849902     0.04100
C1421       C  0.48182339  0.52546781  0.86304983     0.18300
C1422       C  0.48266491  0.52778226  0.85147405    -0.19700
C1423       C  0.48245805  0.56454888  0.86918010    -0.21000
C1424       C  0.48231269  0.56328767  0.88064197    -0.19600
C1425       C  0.48168097  0.52291017  0.88626550     0.19600
C1426       C  0.48071097  0.48257200  0.88028965     0.01800
C1427       C  0.48029023  0.44273634  0.88639242    -0.14300
C1428       C  0.48114827  0.44300446  0.89790114    -0.12000
C1429       C  0.48230659  0.48279696  0.90374952     0.01300
C1430       C  0.48233282  0.52267035  0.89785815    -0.24200
H1431       H  0.47997899  0.41799716  0.84566322     0.09300
H1432       H  0.47833134  0.41267933  0.86532823     0.12900
H1433       H  0.48386044  0.55973660  0.84744190     0.11600
H1434       H  0.48325043  0.59635809  0.86507841     0.12800
H1435       H  0.48298526  0.59414989  0.88514344     0.11800
H1436       H  0.47956408  0.41075437  0.88254064     0.08900
H1437       H  0.48098098  0.41172160  0.90224115     0.12200
H1438       H  0.48319481  0.55368868  0.90229730     0.14000
C1439       C  0.49334024  0.99062158  0.90385616    -0.01500
C1440       C  0.49155929  0.03162907  0.89852235    -0.09500
C1441       C  0.49063819  0.03446408  0.88704205    -0.18300
C1442       C  0.49161998  0.99608092  0.88043564     0.04100
C1443       C  0.49318300  0.95446397  0.88587969     0.18300
C1444       C  0.49394640  0.95210622  0.89746527    -0.19700
C1445       C  0.49417827  0.91543513  0.87973113    -0.21000
C1446       C  0.49396768  0.91678406  0.86826827    -0.19600
C1447       C  0.49276376  0.95719335  0.86266210     0.19600
C1448       C  0.49139131  0.99747482  0.86864748     0.01800
C1449       C  0.49015755  0.03734825  0.86255526    -0.14300
C1450       C  0.49077605  0.03716128  0.85104326    -0.12000
C1451       C  0.49254705  0.99741457  0.84519300     0.01300
C1452       C  0.49325277  0.95751841  0.85107539    -0.24200
H1453       H  0.49085686  0.06191605  0.90325060     0.09300
H1454       H  0.48928839  0.06724992  0.88361642     0.12900
H1455       H  0.49526598  0.92017360  0.90150516     0.11600
H1456       H  0.49530851  0.88360766  0.88381817     0.12800
H1457       H  0.49495458  0.88596329  0.86375163     0.11800
H1458       H  0.48892679  0.06929866  0.86641522     0.08900
H1459       H  0.49010380  0.06844260  0.84670517     0.12200
H1460       H  0.49454816  0.92652256  0.84663193     0.14000
C1461       C  0.62022065  0.49707348  0.81299263    -0.01500
C1462       C  0.64284811  0.53730274  0.81338704    -0.09500
C1463       C  0.68881429  0.53850160  0.81346054    -0.18300
C1464       C  0.71395084  0.49918896  0.81310969     0.04100
C1465       C  0.69085377  0.45838501  0.81278416     0.18300
C1466       C  0.64450571  0.45768169  0.81275299    -0.19700
C1467       C  0.71413614  0.41851462  0.81241100    -0.21000
C1468       C  0.75998526  0.41823370  0.81225042    -0.19600
C1469       C  0.78373361  0.45781260  0.81248193     0.19600
C1470       C  0.76107487  0.49888776  0.81298289     0.01800
C1471       C  0.78661791  0.53787087  0.81327971    -0.14300
C1472       C  0.83252085  0.53613267  0.81298343    -0.12000
C1473       C  0.85475769  0.49567089  0.81238721     0.01300
C1474       C  0.83009291  0.45656037  0.81217993    -0.24200
H1475       H  0.62493594  0.56822597  0.81359497     0.09300
H1476       H  0.70356008  0.57079473  0.81373070     0.12900
H1477       H  0.62733484  0.42633050  0.81244939     0.11600
H1478       H  0.69674717  0.38728933  0.81218057     0.12800
H1479       H  0.77699716  0.38680367  0.81190316     0.11800
H1480       H  0.77224563  0.57031294  0.81373007     0.08900
H1481       H  0.85070151  0.56688046  0.81320681     0.12200
H1482       H  0.84696106  0.42504890  0.81177598     0.14000
C1483       C  0.35480524  0.49604388  0.81069847    -0.01500
C1484       C  0.33226645  0.53635764  0.81030910    -0.09500
C1485       C  0.28634771  0.53775395  0.81026876    -0.18300
C1486       C  0.26111505  0.49856792  0.81068017     0.04100
C1487       C  0.28407803  0.45762917  0.81087502     0.18300
C1488       C  0.33045483  0.45671597  0.81086527    -0.19700
C1489       C  0.26061585  0.41786908  0.81115413    -0.21000
C1490       C  0.21475476  0.41783891  0.81129769    -0.19600
C1491       C  0.19118530  0.45757164  0.81122596     0.19600
C1492       C  0.21401297  0.49854702  0.81093678     0.01800
C1493       C  0.18866073  0.53772156  0.81100621    -0.14300
C1494       C  0.14274602  0.53623911  0.81128208    -0.12000
C1495       C  0.12034237  0.49585324  0.81149528     0.01300
C1496       C  0.14483398  0.45657829  0.81147565    -0.24200
H1497       H  0.35022900  0.56723713  0.81006620     0.09300
H1498       H  0.27172065  0.57010996  0.80993617     0.12900
H1499       H  0.34758142  0.42531438  0.81112391     0.11600
H1500       H  0.27786537  0.38653926  0.81128294     0.12800
H1501       H  0.19759195  0.38648280  0.81152050     0.11800
H1502       H  0.20319298  0.57013097  0.81089820     0.08900
H1503       H  0.12469051  0.56709075  0.81131987     0.12200
H1504       H  0.12783092  0.42511602  0.81166399     0.14000
C1505       C  0.98761606  0.48487459  0.90371429    -0.01500
C1506       C  0.98993520  0.44499167  0.89793080    -0.09500
C1507       C  0.98999080  0.44443347  0.88642428    -0.18300
C1508       C  0.98759393  0.48405685  0.88026203     0.04100
C1509       C  0.98525894  0.52448709  0.88617286     0.18300
C1510       C  0.98534674  0.52454228  0.89776439    -0.19700
C1511       C  0.98283272  0.56465842  0.88048653    -0.21000
C1512       C  0.98288300  0.56564099  0.86902193    -0.19600
C1513       C  0.98528214  0.52647215  0.86295328     0.19600
C1514       C  0.98750096  0.48506069  0.86847372     0.01800
C1515       C  0.98952335  0.44650024  0.86193930    -0.14300
C1516       C  0.98954674  0.44901433  0.85045075    -0.12000
C1517       C  0.98766985  0.48986423  0.84504964     0.01300
C1518       C  0.98548715  0.52850343  0.85136929    -0.24200
H1519       H  0.99178274  0.41387411  0.90232090     0.09300
H1520       H  0.99196350  0.41240151  0.88262596     0.12900
H1521       H  0.98345474  0.55562058  0.90215857     0.11600
H1522       H  0.98096615  0.59558403  0.88494067     0.12800
H1523       H  0.98106761  0.59730271  0.86486990     0.11800
H1524       H  0.99109243  0.41382880  0.86542703     0.08900
H1525       H  0.99119049  0.41863977  0.84577145     0.12200
H1526       H  0.98382034  0.56030271  0.84727155     0.14000
C1527       C  0.86588696  0.00638433  0.81254219    -0.01500
C1528       C  0.84337839  0.04666029  0.81327386    -0.09500
C1529       C  0.79727571  0.04792490  0.81356427    -0.18300
C1530       C  0.77205300  0.00865723  0.81310249     0.04100
C1531       C  0.79518362  0.96793518  0.81235855     0.18300
C1532       C  0.84143043  0.96719285  0.81208475    -0.19700
C1533       C  0.77209841  0.92802964  0.81188822    -0.21000
C1534       C  0.72634640  0.92754279  0.81211614    -0.19600
C1535       C  0.70249057  0.96695605  0.81278816     0.19600
C1536       C  0.72485933  0.00815962  0.81330687     0.01800
C1537       C  0.69890971  0.04690626  0.81393610    -0.14300
C1538       C  0.65285251  0.04472509  0.81391195    -0.12000
C1539       C  0.63108075  0.00401244  0.81332232     0.01300
C1540       C  0.65623976  0.96527367  0.81284688    -0.24200
H1541       H  0.86147412  0.07742482  0.81366663     0.09300
H1542       H  0.78240032  0.08012381  0.81415816     0.12900
H1543       H  0.85844051  0.93579651  0.81150601     0.11600
H1544       H  0.78957520  0.89690331  0.81132645     0.12800
H1545       H  0.70947731  0.89605810  0.81171584     0.11800
H1546       H  0.71316982  0.07940748  0.81438353     0.08900
H1547       H  0.63420521  0.07517417  0.81431592     0.12200
H1548       H  0.63978672  0.93356711  0.81238105     0.14000
C1549       C  0.13134670  0.99497686  0.81126660    -0.01500
C1550       C  0.15317641  0.95485675  0.81304937    -0.09500
C1551       C  0.19914572  0.95240376  0.81266898    -0.18300
C1552       C  0.22495980  0.99023680  0.81039913     0.04100
C1553       C  0.20251876  0.03070625  0.80839199     0.18300
C1554       C  0.15628788  0.03273627  0.80889278    -0.19700
C1555       C  0.22632240  0.06904939  0.80595707    -0.21000
C1556       C  0.27210524  0.06841150  0.80571806    -0.19600
C1557       C  0.29524907  0.02942677  0.80792137     0.19600
C1558       C  0.27212006  0.98958390  0.81016153     0.01800
C1559       C  0.29730792  0.95107124  0.81219489    -0.14300
C1560       C  0.34337418  0.95240481  0.81224729    -0.12000
C1561       C  0.36588055  0.99201881  0.81032658     0.01300
C1562       C  0.34152714  0.03028026  0.80803948    -0.24200
H1563       H  0.13463274  0.92516617  0.81486273     0.09300
H1564       H  0.21342366  0.92044239  0.81422381     0.12900
H1565       H  0.13966341  0.06385073  0.80737373     0.11600
H1566       H  0.20940873  0.09989578  0.80432632     0.12800
H1567       H  0.28956378  0.09879339  0.80391779     0.11800
H1568       H  0.28245963  0.91947964  0.81387511     0.08900
H1569       H  0.36144318  0.92235675  0.81399724     0.12200
H1570       H  0.35864664  0.06103332  0.80641736     0.14000
C1571       C  0.99920953  0.99911814  0.84533893    -0.01500
C1572       C  0.99633058  0.03883045  0.85118089    -0.09500
C1573       C  0.99593999  0.03914911  0.86268139    -0.18300
C1574       C  0.99854943  0.99944488  0.86879832     0.04100
C1575       C  0.00176191  0.95917268  0.86284166     0.18300
C1576       C  0.00191707  0.95934044  0.85123781    -0.19700
C1577       C  0.00482988  0.91897537  0.86850126    -0.21000
C1578       C  0.00469128  0.91783866  0.87997347    -0.19600
C1579       C  0.00129198  0.95685500  0.88608295     0.19600
C1580       C  0.99812526  0.99825338  0.88058871     0.01800
C1581       C  0.99455620  0.03663339  0.88714907    -0.14300
C1582       C  0.99423004  0.03399992  0.89863604    -0.12000
C1583       C  0.99740304  0.99320705  0.90402797     0.01300
C1584       C  0.00095044  0.95470381  0.89767795    -0.24200
H1585       H  0.99419070  0.07004024  0.84684004     0.09300
H1586       H  0.99363245  0.07109755  0.86650953     0.12900
H1587       H  0.00428460  0.92839767  0.84679880     0.11600
H1588       H  0.00738135  0.88815887  0.86402108     0.12800
H1589       H  0.00714339  0.88616756  0.88409951     0.11800
H1590       H  0.99183724  0.06926635  0.88368522     0.08900
H1591       H  0.99138587  0.06426708  0.90332286     0.12200
H1592       H  0.00343056  0.92292531  0.90175828     0.14000
C1593       C  0.49870869  0.50759804  0.72043350    -0.01500
C1594       C  0.46094006  0.52312511  0.72581512    -0.09500
C1595       C  0.45846436  0.52333971  0.73730889    -0.18300
C1596       C  0.49366702  0.50720356  0.74381353     0.04100
C1597       C  0.53127370  0.48997885  0.73828364     0.18300
C1598       C  0.53384294  0.49119404  0.72671914    -0.19700
C1599       C  0.56579292  0.47105601  0.74431830    -0.21000
C1600       C  0.56347747  0.46820974  0.75575283    -0.19600
C1601       C  0.52737809  0.48575298  0.76145190     0.19600
C1602       C  0.49254872  0.50672824  0.75558575     0.01800
C1603       C  0.45848050  0.52687215  0.76177392    -0.14300
C1604       C  0.45853813  0.52522558  0.77327780    -0.12000
C1605       C  0.49173149  0.50261635  0.77892143     0.01300
C1606       C  0.52604486  0.48286662  0.77301257    -0.24200
H1607       H  0.43322119  0.53555448  0.72110979     0.09300
H1608       H  0.42818086  0.53541833  0.74084711     0.12900
H1609       H  0.56284272  0.47832238  0.72258724     0.11600
H1610       H  0.59444210  0.45765221  0.74015130     0.12800
H1611       H  0.59036900  0.45265657  0.76018011     0.11800
H1612       H  0.43185792  0.54489741  0.75798033     0.08900
H1613       H  0.43207201  0.54104709  0.77779917     0.12200
H1614       H  0.55223786  0.46615379  0.77745502     0.14000
C1615       C  0.51050505  0.50617747  0.65409347    -0.01500
C1616       C  0.55139822  0.50636130  0.64872215    -0.09500
C1617       C  0.55398419  0.50628436  0.63722841    -0.18300
C1618       C  0.51545025  0.50609430  0.63065913     0.04100
C1619       C  0.47399110  0.50606362  0.63614916     0.18300
C1620       C  0.47189764  0.50601208  0.64773363    -0.19700
C1621       C  0.43482622  0.50616004  0.63005006    -0.21000
C1622       C  0.43586607  0.50631692  0.61858289    -0.19600
C1623       C  0.47609797  0.50626110  0.61291818     0.19600
C1624       C  0.51651472  0.50604622  0.61886600     0.01800
C1625       C  0.55619930  0.50579339  0.61273503    -0.14300
C1626       C  0.55572716  0.50601648  0.60122975    -0.12000
C1627       C  0.51587724  0.50648809  0.59539719     0.01300
C1628       C  0.47612740  0.50649553  0.60131521    -0.24200
H1629       H  0.58174144  0.50653266  0.65342800     0.09300
H1630       H  0.58668633  0.50647618  0.63376253     0.12900
H1631       H  0.44004011  0.50598547  0.65180102     0.11600
H1632       H  0.40311558  0.50618193  0.63418107     0.12800
H1633       H  0.40493963  0.50646969  0.61410987     0.11800
H1634       H  0.58822847  0.50543107  0.61655911     0.08900
H1635       H  0.58693848  0.50593711  0.59687845     0.12200
H1636       H  0.44507460  0.50681192  0.59689068     0.14000
C1637       C  0.50389023  0.87448088  0.68689242    -0.01500
C1638       C  0.46336007  0.85238375  0.68685484    -0.09500
C1639       C  0.46154482  0.80640242  0.68687495    -0.18300
C1640       C  0.50051549  0.78076168  0.68696024     0.04100
C1641       C  0.54160786  0.80335251  0.68713696     0.18300
C1642       C  0.54292861  0.84969431  0.68704864    -0.19700
C1643       C  0.58116196  0.77958317  0.68743425    -0.21000
C1644       C  0.58085701  0.73372314  0.68755712    -0.19600
C1645       C  0.54100282  0.71049085  0.68728439     0.19600
C1646       C  0.50021835  0.73361523  0.68692145     0.01800
C1647       C  0.46096531  0.70848255  0.68648022    -0.14300
C1648       C  0.46220937  0.66246948  0.68649440    -0.12000
C1649       C  0.50242624  0.63986298  0.68696230     0.01300
C1650       C  0.54173293  0.66415018  0.68734467    -0.24200
H1651       H  0.43269914  0.87072867  0.68680199     0.09300
H1652       H  0.42908154  0.79203087  0.68688347     0.12900
H1653       H  0.57449534  0.86647523  0.68716621     0.11600
H1654       H  0.61258648  0.79658995  0.68760384     0.12800
H1655       H  0.61205427  0.71629107  0.68782223     0.11800
H1656       H  0.42872629  0.72328409  0.68606233     0.08900
H1657       H  0.43136940  0.64450961  0.68615388     0.12200
H1658       H  0.57308119  0.64697587  0.68766357     0.14000
C1659       C  0.50990964  0.13988172  0.68823336    -0.01500
C1660       C  0.54975921  0.16250760  0.68688034    -0.09500
C1661       C  0.55092753  0.20851239  0.68692064    -0.18300
C1662       C  0.51198485  0.23357979  0.68837001     0.04100
C1663       C  0.47165702  0.21039961  0.68985761     0.18300
C1664       C  0.47097313  0.16407583  0.68975680    -0.19700
C1665       C  0.43218445  0.23355830  0.69137449    -0.21000
C1666       C  0.43172991  0.27941906  0.69129679    -0.19600
C1667       C  0.47074700  0.30324739  0.68971594     0.19600
C1668       C  0.51152789  0.28071121  0.68831896     0.01800
C1669       C  0.55002116  0.30638487  0.68687608    -0.14300
C1670       C  0.54799967  0.35232461  0.68670828    -0.12000
C1671       C  0.50771677  0.37436227  0.68793218     0.01300
C1672       C  0.46918832  0.34958362  0.68948002    -0.24200
H1673       H  0.58027983  0.14456734  0.68567191     0.09300
H1674       H  0.58284471  0.22334198  0.68574394     0.12900
H1675       H  0.43995779  0.14682848  0.69086618     0.11600
H1676       H  0.40137057  0.21606744  0.69256200     0.12800
H1677       H  0.40058090  0.29637447  0.69242637     0.11800
H1678       H  0.58225762  0.29208917  0.68583200     0.08900
H1679       H  0.57828458  0.37068819  0.68553341     0.12200
H1680       H  0.43787930  0.36636481  0.69052338     0.14000
C1681       C  0.50934211  0.00331446  0.72047299    -0.01500
C1682       C  0.54153253  0.97878353  0.72601965    -0.09500
C1683       C  0.54159681  0.97634367  0.73752285    -0.18300
C1684       C  0.50983771  0.99940009  0.74383632     0.04100
C1685       C  0.47861865  0.02598274  0.73812723     0.18300
C1686       C  0.47795679  0.02679569  0.72655903    -0.19700
C1687       C  0.44858366  0.05200493  0.74399127    -0.21000
C1688       C  0.44914840  0.05258986  0.75544872    -0.19600
C1689       C  0.47848988  0.02573635  0.76131004     0.19600
C1690       C  0.50839355  0.99772360  0.75559756     0.01800
C1691       C  0.53487844  0.96868827  0.76190823    -0.14300
C1692       C  0.53240506  0.96834602  0.77341047    -0.12000
C1693       C  0.50446952  0.99759163  0.77895018     0.01300
C1694       C  0.47768504  0.02627589  0.77287885    -0.24200
H1695       H  0.56634545  0.96078490  0.72142598     0.09300
H1696       H  0.56743596  0.95695748  0.74124268     0.12900
H1697       H  0.45358509  0.04661233  0.72226666     0.11600
H1698       H  0.42496449  0.07261361  0.73968319     0.12800
H1699       H  0.42597442  0.07365877  0.75975896     0.11800
H1700       H  0.55701575  0.94518734  0.75818645     0.08900
H1701       H  0.55294485  0.94557947  0.77801377     0.12200
H1702       H  0.45525942  0.04820127  0.77718581     0.14000
C1703       C  0.50511457  0.01217107  0.65420766    -0.01500
C1704       C  0.46629249  0.00321046  0.64839430    -0.09500
C1705       C  0.46573441  0.00396796  0.63687886    -0.18300
C1706       C  0.50424838  0.01398569  0.63076457     0.04100
C1707       C  0.54329532  0.02408080  0.63673092     0.18300
C1708       C  0.54340698  0.02295545  0.64831086    -0.19700
C1709       C  0.58217281  0.03484696  0.63111379    -0.21000
C1710       C  0.58347696  0.03486380  0.61965518    -0.19600
C1711       C  0.54593904  0.02409871  0.61352519     0.19600
C1712       C  0.50561497  0.01393647  0.61897573     0.01800
C1713       C  0.46860335  0.00371876  0.61237412    -0.14300
C1714       C  0.47167643  0.00317971  0.60089259    -0.12000
C1715       C  0.51160888  0.01255911  0.59557103     0.01300
C1716       C  0.54860428  0.02316878  0.60195108    -0.24200
H1717       H  0.43622507  0.99496202  0.65276509     0.09300
H1718       H  0.43468446  0.99631381  0.63303063     0.12900
H1719       H  0.57351361  0.03045002  0.65274626     0.11600
H1720       H  0.61193975  0.04292123  0.63561924     0.12800
H1721       H  0.61421144  0.04297062  0.61555744     0.11800
H1722       H  0.43681449  0.99578436  0.61580844     0.08900
H1723       H  0.44256901  0.99492684  0.59615467     0.12200
H1724       H  0.57957635  0.03083675  0.59790386     0.14000
C1725       C  0.99182237  0.49896983  0.72021464    -0.01500
C1726       C  0.95765683  0.52104649  0.72566878    -0.09500
C1727       C  0.95604662  0.52239920  0.73715849    -0.18300
C1728       C  0.98832020  0.50075126  0.74360417     0.04100
C1729       C  0.02196937  0.47685804  0.73801469     0.18300
C1730       C  0.02405763  0.47708867  0.72642368    -0.19700
C1731       C  0.05286288  0.45234790  0.74402699    -0.21000
C1732       C  0.05072106  0.45057398  0.75548353    -0.19600
C1733       C  0.01874030  0.47469942  0.76122582     0.19600
C1734       C  0.98787894  0.50121720  0.75538193     0.01800
C1735       C  0.95841045  0.52758227  0.76159143    -0.14300
C1736       C  0.95896675  0.52676868  0.77310553    -0.12000
C1737       C  0.98794429  0.49894311  0.77876081     0.01300
C1738       C  0.01770018  0.47289515  0.77280488    -0.24200
H1739       H  0.93218707  0.53783257  0.72100709     0.09300
H1740       H  0.92855093  0.53975842  0.74074628     0.12900
H1741       H  0.05006040  0.45918046  0.72221873     0.11600
H1742       H  0.07839447  0.43378813  0.73983043     0.12800
H1743       H  0.07464088  0.43067216  0.75989308     0.11800
H1744       H  0.93522660  0.54987811  0.75779925     0.08900
H1745       H  0.93608288  0.54743514  0.77762413     0.12200
H1746       H  0.04082894  0.45204487  0.77722116     0.14000
C1747       C  0.99249577  0.49785629  0.65383767    -0.01500
C1748       C  0.95239775  0.49941735  0.64811717    -0.09500
C1749       C  0.95136669  0.49788129  0.63661422    -0.18300
C1750       C  0.99070704  0.49458176  0.63039811     0.04100
C1751       C  0.03132398  0.49305906  0.63625184     0.18300
C1752       C  0.03185509  0.49478586  0.64783018    -0.19700
C1753       C  0.07125151  0.48977195  0.63052579    -0.21000
C1754       C  0.07184753  0.48824501  0.61907683    -0.19600
C1755       C  0.03253065  0.48994086  0.61306375     0.19600
C1756       C  0.99130919  0.49290666  0.61861219     0.01800
C1757       C  0.95261822  0.49422440  0.61210008    -0.14300
C1758       C  0.95492239  0.49329257  0.60059564    -0.12000
C1759       C  0.99568079  0.49096851  0.59518658     0.01300
C1760       C  0.03432147  0.48898026  0.60149746    -0.24200
H1761       H  0.92147463  0.50181935  0.65255456     0.09300
H1762       H  0.91923582  0.49932301  0.63285497     0.12900
H1763       H  0.06306731  0.49343923  0.65217350     0.11600
H1764       H  0.10229882  0.48849417  0.63493589     0.12800
H1765       H  0.10335132  0.48587332  0.61488980     0.11800
H1766       H  0.92006590  0.49617041  0.61562421     0.08900
H1767       H  0.92454814  0.49472812  0.59591471     0.12200
H1768       H  0.06605563  0.48700238  0.59739951     0.14000
C1769       C  0.99617214  0.63123841  0.68735480    -0.01500
C1770       C  0.03703369  0.65266220  0.68676768    -0.09500
C1771       C  0.03980310  0.69852862  0.68700440    -0.18300
C1772       C  0.00150341  0.72484975  0.68787543     0.04100
C1773       C  0.96001408  0.70302436  0.68844568     0.18300
C1774       C  0.95770939  0.65667324  0.68817474    -0.19700
C1775       C  0.92107788  0.72759333  0.68926825    -0.21000
C1776       C  0.92237153  0.77344929  0.68944209    -0.19600
C1777       C  0.96264615  0.79588586  0.68884498     0.19600
C1778       C  0.00286755  0.77196428  0.68813911     0.01800
C1779       C  0.04265691  0.79631027  0.68770824    -0.14300
C1780       C  0.04239532  0.84234801  0.68780563    -0.12000
C1781       C  0.00266086  0.86573808  0.68831458     0.01300
C1782       C  0.96289271  0.84222794  0.68889975    -0.24200
H1783       H  0.06729733  0.63385731  0.68609362     0.09300
H1784       H  0.07247354  0.71225281  0.68646098     0.12900
H1785       H  0.92592323  0.64041086  0.68864924     0.11600
H1786       H  0.88935686  0.71123005  0.68973026     0.12800
H1787       H  0.89160535  0.79151146  0.69002407     0.11800
H1788       H  0.07459353  0.78087992  0.68727385     0.08900
H1789       H  0.07356726  0.85970819  0.68738041     0.12200
H1790       H  0.93192385  0.86002364  0.68936988     0.14000
C1791       C  0.99419732  0.36568805  0.68660973    -0.01500
C1792       C  0.03371660  0.34423646  0.68395202    -0.09500
C1793       C  0.03635326  0.29838922  0.68380890    -0.18300
C1794       C  0.99932943  0.27208760  0.68641246     0.04100
C1795       C  0.95916743  0.29393283  0.68908972     0.18300
C1796       C  0.95687915  0.34032033  0.68910446    -0.19700
C1797       C  0.92162476  0.26934067  0.69179106    -0.21000
C1798       C  0.92301672  0.22346806  0.69186251    -0.19600
C1799       C  0.96197486  0.20102988  0.68922486     0.19600
C1800       C  0.00076873  0.22497502  0.68648179     0.01800
C1801       C  0.03932227  0.20066344  0.68395586    -0.14300
C1802       C  0.03929044  0.15465605  0.68416136    -0.12000
C1803       C  0.00096157  0.13123698  0.68681404     0.01300
C1804       C  0.96237054  0.15467355  0.68932882    -0.24200
H1805       H  0.06301425  0.36303097  0.68192501     0.09300
H1806       H  0.06796173  0.28468983  0.68165641     0.12900
H1807       H  0.92618783  0.35665692  0.69120004     0.11600
H1808       H  0.89094965  0.28570249  0.69387272     0.12800
H1809       H  0.89336606  0.20539502  0.69399357     0.11800
H1810       H  0.07012729  0.21607788  0.68179555     0.08900
H1811       H  0.06950411  0.13732617  0.68216707     0.12200
H1812       H  0.93256399  0.13681286  0.69145255     0.14000
C1813       C  0.99957249  0.00412155  0.77903171    -0.01500
C1814       C  0.02503097  0.03573154  0.77352463    -0.09500
C1815       C  0.02711581  0.03635933  0.76202645    -0.18300
C1816       C  0.00280978  0.00575774  0.75567365     0.04100
C1817       C  0.97555639  0.97497502  0.76135194     0.18300
C1818       C  0.97501937  0.97375171  0.77292041    -0.19700
C1819       C  0.94863735  0.94591152  0.75545963    -0.21000
C1820       C  0.94787823  0.94694847  0.74400673    -0.19600
C1821       C  0.97525495  0.97591657  0.73817512     0.19600
C1822       C  0.00399098  0.00499310  0.74390844     0.01800
C1823       C  0.03314530  0.03141652  0.73760857    -0.14300
C1824       C  0.03311772  0.02947692  0.72610720    -0.12000
C1825       C  0.00344357  0.00211192  0.72056149     0.01300
C1826       C  0.97447342  0.97556882  0.72661142    -0.24200
H1827       H  0.04402536  0.05965375  0.77814865     0.09300
H1828       H  0.04732140  0.06169428  0.75835669     0.12900
H1829       H  0.95463870  0.94977300  0.77719435     0.11600
H1830       H  0.92754218  0.92263378  0.75974359     0.12800
H1831       H  0.92620284  0.92445764  0.73967485     0.11800
H1832       H  0.05696622  0.05316134  0.74132398     0.08900
H1833       H  0.05595353  0.04997867  0.72151146     0.12200
H1834       H  0.95207682  0.95371355  0.72228922     0.14000
C1835       C  0.00094553  0.99512168  0.65437718    -0.01500
C1836       C  0.96137384  0.00155873  0.64867724    -0.09500
C1837       C  0.96031598  0.00089878  0.63719088    -0.18300
C1838       C  0.99909911  0.99359514  0.63096646     0.04100
C1839       C  0.03924664  0.98701114  0.63678906     0.18300
C1840       C  0.03981404  0.98779886  0.64837460    -0.19700
C1841       C  0.07860800  0.97990530  0.63101660    -0.21000
C1842       C  0.07908993  0.97969729  0.61954580    -0.19600
C1843       C  0.04017202  0.98629765  0.61356823     0.19600
C1844       C  0.99952099  0.99290973  0.61919335     0.01800
C1845       C  0.96103693  0.99858771  0.61277962    -0.14300
C1846       C  0.96292872  0.99826758  0.60130580    -0.12000
C1847       C  0.00307105  0.99247462  0.59579043     0.01300
C1848       C  0.04163237  0.98637430  0.60197635    -0.24200
H1849       H  0.93092651  0.00744644  0.65311672     0.09300
H1850       H  0.92858919  0.00648963  0.63346671     0.12900
H1851       H  0.07064256  0.98271754  0.65271979     0.11600
H1852       H  0.10930833  0.97475265  0.63540518     0.12800
H1853       H  0.11014724  0.97439866  0.61531924     0.11800
H1854       H  0.92885291  0.00328656  0.61634157     0.08900
H1855       H  0.93262459  0.00291977  0.59672469     0.12200
H1856       H  0.07282252  0.98148715  0.59777173     0.14000
loop_ 
_geom_bond_atom_site_label_1 
_geom_bond_atom_site_label_2 
_geom_bond_distance 
_geom_bond_site_symmetry_2 
_ccdc_geom_bond_type 
O1            V9   1.897   1_545  S
O1           C11   1.263       .  A
O2            V9   1.897       .  S
O2           C12   1.264       .  A
O3            V9   1.898   1_545  S
O3           C13   1.265       .  A
O4            V9   1.901       .  S
O4           C14   1.266       .  A
O5           V10   1.895       .  S
O5           C14   1.264   1_655  A
O6           V10   1.898   1_545  S
O6           C13   1.264   1_655  A
O7           V10   1.897       .  S
O7           C12   1.265   1_655  A
O8           V10   1.896       .  S
O8           C11   1.264   1_665  A
V9           V10   2.085   1_455  T
C11        C1825   1.468       .  S
C12        C1835   1.477       .  S
C13        C1803   1.478       .  S
C14        C1781   1.479       .  S
O15          V23   1.893       .  S
O15          C25   1.263       .  A
O16          V23   1.895       .  S
O16          C26   1.264       .  A
O17          V23   1.910       .  S
O17          C27   1.267       .  A
O18          V23   1.907       .  S
O18          C28   1.267       .  A
O19          V24   1.890       .  S
O19          C28   1.263   1_455  A
O20          V24   1.886       .  S
O20          C27   1.262   1_455  A
O21          V24   1.903       .  S
O21          C26   1.266   1_455  A
O22          V24   1.906       .  S
O22          C25   1.266   1_455  A
V23          V24   2.086   1_655  T
C25        C1725   1.474       .  S
C26        C1747   1.480       .  S
C27        C1791   1.478       .  S
C28        C1769   1.479       .  S
O29          V37   1.898       .  S
O29          C39   1.264       .  A
O30          V37   1.898       .  S
O30          C40   1.264       .  A
O31          V37   1.899   1_565  S
O31          C41   1.265       .  A
O32          V37   1.899       .  S
O32          C42   1.265       .  A
O33          V38   1.896       .  S
O33          C42   1.264       .  A
O34          V38   1.897   1_565  S
O34          C41   1.265       .  A
O35          V38   1.898       .  S
O35          C40   1.264       .  A
O36          V38   1.900       .  S
O36          C39   1.265       .  A
V37          V38   2.086       .  T
C39        C1703   1.478       .  S
C40        C1681   1.471       .  S
C41        C1637   1.479       .  S
C42        C1659   1.477       .  S
O43          V51   1.897       .  S
O43          C53   1.264       .  A
O44          V51   1.900       .  S
O44          C54   1.265       .  A
O45          V51   1.902       .  S
O45          C55   1.265       .  A
O46          V51   1.898       .  S
O46          C56   1.265       .  A
O47          V52   1.898       .  S
O47          C56   1.264       .  A
O48          V52   1.894       .  S
O48          C55   1.264       .  A
O49          V52   1.899       .  S
O49          C54   1.265       .  A
O50          V52   1.900       .  S
O50          C53   1.265       .  A
V51          V52   2.086       .  T
C53        C1593   1.475       .  S
C54        C1615   1.481       .  S
C55        C1671   1.478       .  S
C56        C1649   1.479       .  S
O57          V65   1.895       .  S
O57          C67   1.263   1_455  A
O58          V65   1.896   1_655  S
O58          C68   1.265   1_545  A
O59          V65   1.901       .  S
O59          C69   1.265   1_545  A
O60          V65   1.905   1_655  S
O60          C70   1.266       .  A
O61          V66   1.896       .  S
O61          C70   1.264   1_565  A
O62          V66   1.899   1_455  S
O62          C69   1.265       .  A
O63          V66   1.902       .  S
O63          C68   1.265       .  A
O64          V66   1.900       .  S
O64          C67   1.265   1_565  A
V65          V66   2.086   1_445  T
C67        C1813   1.470       .  S
C68        C1571   1.480       .  S
C69        C1549   1.480       .  S
C70        C1527   1.482       .  S
O71          V79   1.901       .  S
O71          C81   1.264       .  A
O72          V79   1.901       .  S
O72          C82   1.265       .  A
O73          V79   1.895   1_455  S
O73          C83   1.264       .  A
O74          V79   1.892       .  S
O74          C84   1.263       .  A
O75          V80   1.907       .  S
O75          C84   1.267       .  A
O76          V80   1.903   1_455  S
O76          C83   1.265       .  A
O77          V80   1.896       .  S
O77          C82   1.264       .  A
O78          V80   1.898       .  S
O78          C81   1.263       .  A
V79          V80   2.086       .  T
C81        C1737   1.470       .  S
C82        C1517   1.479       .  S
C83        C1495   1.480       .  S
C84        C1473   1.481       .  S
O85          V93   1.897       .  S
O85          C95   1.264       .  A
O86          V93   1.897       .  S
O86          C96   1.263       .  A
O87          V93   1.899       .  S
O87          C97   1.265   1_565  A
O88          V93   1.904       .  S
O88          C98   1.266       .  A
O89          V94   1.896       .  S
O89          C98   1.264   1_545  A
O90          V94   1.901       .  S
O90          C97   1.265       .  A
O91          V94   1.898       .  S
O91          C96   1.264   1_545  A
O92          V94   1.900       .  S
O92          C95   1.265   1_545  A
V93          V94   2.087   1_565  T
C95        C1451   1.480       .  S
C96        C1693   1.469       .  S
C97        C1539   1.482       .  S
C98        C1561   1.480       .  S
O99         V107   1.899       .  S
O99         C109   1.265       .  A
O100        V107   1.900       .  S
O100        C110   1.263       .  A
O101        V107   1.901       .  S
O101        C111   1.265       .  A
O102        V107   1.905       .  S
O102        C112   1.266       .  A
O103        V108   1.893       .  S
O103        C112   1.264       .  A
O104        V108   1.898       .  S
O104        C111   1.265       .  A
O105        V108   1.898       .  S
O105        C110   1.263       .  A
O106        V108   1.899       .  S
O106        C109   1.265       .  A
V107        V108   2.086       .  T
C109       C1417   1.480       .  S
C110       C1605   1.466       .  S
C111       C1461   1.480       .  S
C112       C1483   1.480       .  S
O113        V121   1.899       .  S
O113        C123   1.265   1_445  A
O114        V121   1.898       .  S
O114        C124   1.264   1_455  A
O115        V121   1.901       .  S
O115        C125   1.265       .  A
O116        V121   1.896   1_565  S
O116        C126   1.265   1_455  A
O117        V122   1.902   1_565  S
O117        C126   1.265       .  A
O118        V122   1.897       .  S
O118        C125   1.265   1_655  A
O119        V122   1.902       .  S
O119        C124   1.265       .  A
O120        V122   1.899       .  S
O120        C123   1.265   1_545  A
V121        V122   2.085   1_455  T
C123       C1395   1.479       .  S
C124       C1385   1.476       .  S
C125       C1351   1.479       .  S
C126       C1329   1.479       .  S
O127        V135   1.901       .  S
O127        C137   1.265       .  A
O128        V135   1.903       .  S
O128        C138   1.265       .  A
O129        V135   1.897       .  S
O129        C139   1.265   1_655  A
O130        V135   1.901       .  S
O130        C140   1.265       .  A
O131        V136   1.895       .  S
O131        C140   1.265   1_455  A
O132        V136   1.903       .  S
O132        C139   1.265       .  A
O133        V136   1.896       .  S
O133        C138   1.263   1_455  A
O134        V136   1.896       .  S
O134        C137   1.265   1_455  A
V135        V136   2.086   1_655  T
C137       C1307   1.479   1_655  S
C138       C1285   1.473       .  S
C139       C1363   1.480       .  S
C140       C1341   1.478       .  S
O141        V149   1.898       .  S
O141        C151   1.265       .  A
O142        V149   1.898       .  S
O142        C152   1.264       .  A
O143        V149   1.897       .  S
O143        C153   1.265       .  A
O144        V149   1.899   1_565  S
O144        C154   1.265       .  A
O145        V150   1.897   1_565  S
O145        C154   1.264       .  A
O146        V150   1.898       .  S
O146        C153   1.265       .  A
O147        V150   1.900       .  S
O147        C152   1.265       .  A
O148        V150   1.901       .  S
O148        C151   1.265       .  A
V149        V150   2.086       .  T
C151       C1275   1.479       .  S
C152       C1253   1.474       .  S
C153       C1219   1.477       .  S
C154       C1209   1.478       .  S
O155        V163   1.903       .  S
O155        C165   1.265       .  A
O156        V163   1.904       .  S
O156        C166   1.266       .  A
O157        V163   1.896       .  S
O157        C167   1.264       .  A
O158        V163   1.898       .  S
O158        C168   1.264       .  A
O159        V164   1.897       .  S
O159        C168   1.265       .  A
O160        V164   1.900       .  S
O160        C167   1.265       .  A
O161        V164   1.896       .  S
O161        C166   1.264       .  A
O162        V164   1.894       .  S
O162        C165   1.263       .  A
V163        V164   2.087       .  T
C165       C1153   1.473       .  S
C166       C1175   1.480       .  S
C167       C1197   1.478       .  S
C168       C1231   1.477       .  S
O169        V177   1.891       .  S
O169        C179   1.263   1_655  A
O170        V177   1.890       .  S
O170        C180   1.263   1_645  A
O171        V177   1.902   1_565  S
O171        C181   1.265   1_655  A
O172        V177   1.902       .  S
O172        C182   1.266   1_655  A
O173        V178   1.896   1_545  S
O173        C182   1.264       .  A
O174        V178   1.894       .  S
O174        C181   1.264       .  A
O175        V178   1.907       .  S
O175        C180   1.267       .  A
O176        V178   1.907       .  S
O176        C179   1.267   1_565  A
V177        V178   2.086   1_645  T
C179       C1143   1.479       .  S
C180       C1407   1.479       .  S
C181       C1087   1.476       .  S
C182       C1109   1.478       .  S
O183        V191   1.898       .  S
O183        C193   1.265   1_655  A
O184        V191   1.899       .  S
O184        C194   1.265   1_655  A
O185        V191   1.895       .  S
O185        C195   1.264   1_655  A
O186        V191   1.895       .  S
O186        C196   1.264   1_655  A
O187        V192   1.901       .  S
O187        C196   1.265       .  A
O188        V192   1.903       .  S
O188        C195   1.265       .  A
O189        V192   1.896       .  S
O189        C194   1.265       .  A
O190        V192   1.898       .  S
O190        C193   1.264       .  A
V191        V192   2.086   1_655  T
C193       C1065   1.479       .  S
C194       C1319   1.478       .  S
C195       C1121   1.479       .  S
C196       C1099   1.476       .  S
O197        V205   1.895       .  S
O197        C207   1.264       .  A
O198        V205   1.896       .  S
O198        C208   1.264       .  A
O199        V205   1.897   1_565  S
O199        C209   1.264       .  A
O200        V205   1.898       .  S
O200        C210   1.265       .  A
O201        V206   1.899       .  S
O201        C210   1.264       .  A
O202        V206   1.897   1_565  S
O202        C209   1.265       .  A
O203        V206   1.904       .  S
O203        C208   1.266       .  A
O204        V206   1.903       .  S
O204        C207   1.266       .  A
V205        V206   2.086       .  T
C207       C1263   1.478       .  S
C208       C1043   1.482       .  S
C209        C999   1.477       .  S
C210       C1021   1.479       .  S
O211        V219   1.901       .  S
O211        C221   1.265       .  A
O212        V219   1.900       .  S
O212        C222   1.265       .  A
O213        V219   1.899       .  S
O213        C223   1.264       .  A
O214        V219   1.895       .  S
O214        C224   1.264       .  A
O215        V220   1.899       .  S
O215        C224   1.264       .  A
O216        V220   1.898       .  S
O216        C223   1.265       .  A
O217        V220   1.898       .  S
O217        C222   1.265       .  A
O218        V220   1.900       .  S
O218        C221   1.265       .  A
V219        V220   2.086       .  T
C221        C977   1.479       .  S
C222       C1187   1.479       .  S
C223       C1033   1.479       .  S
C224       C1011   1.476       .  S
O225        V233   1.904       .  S
O225        C235   1.266       .  A
O226        V233   1.905       .  S
O226        C236   1.266       .  A
O227        V233   1.901   1_655  S
O227        C237   1.265       .  A
O228        V233   1.899       .  S
O228        C238   1.265       .  A
O229        V234   1.900       .  S
O229        C238   1.265   1_545  A
O230        V234   1.897   1_655  S
O230        C237   1.265   1_545  A
O231        V234   1.897   1_655  S
O231        C236   1.265   1_645  A
O232        V234   1.899       .  S
O232        C235   1.265   1_545  A
V233        V234   2.086   1_565  T
C235        C945   1.483       .  S
C236        C955   1.481   1_455  S
C237        C889   1.480       .  S
C238        C911   1.480       .  S
O239        V247   1.897       .  S
O239        C249   1.264       .  A
O240        V247   1.899       .  S
O240        C250   1.265       .  A
O241        V247   1.903   1_455  S
O241        C251   1.266       .  A
O242        V247   1.904       .  S
O242        C252   1.266       .  A
O243        V248   1.892       .  S
O243        C252   1.264       .  A
O244        V248   1.897   1_455  S
O244        C251   1.264       .  A
O245        V248   1.902       .  S
O245        C250   1.266       .  A
O246        V248   1.902       .  S
O246        C249   1.266       .  A
V247        V248   2.086       .  T
C249        C857   1.480       .  S
C250        C879   1.482       .  S
C251        C823   1.480       .  S
C252        C801   1.479       .  S
O253        V261   1.903       .  S
O253        C263   1.265       .  A
O254        V261   1.903       .  S
O254        C264   1.266       .  A
O255        V261   1.899       .  S
O255        C265   1.264       .  A
O256        V261   1.897       .  S
O256        C266   1.265       .  A
O257        V262   1.901       .  S
O257        C266   1.265   1_545  A
O258        V262   1.898       .  S
O258        C265   1.265   1_545  A
O259        V262   1.899       .  S
O259        C264   1.265   1_545  A
O260        V262   1.898       .  S
O260        C263   1.265   1_545  A
V261        V262   2.086   1_565  T
C263        C779   1.482       .  S
C264        C757   1.482       .  S
C265        C901   1.480       .  S
C266        C923   1.480       .  S
O267        V275   1.901       .  S
O267        C277   1.266       .  A
O268        V275   1.903       .  S
O268        C278   1.265       .  A
O269        V275   1.891       .  S
O269        C279   1.264       .  A
O270        V275   1.896       .  S
O270        C280   1.264       .  A
O271        V276   1.903       .  S
O271        C280   1.266       .  A
O272        V276   1.906       .  S
O272        C279   1.266       .  A
O273        V276   1.898       .  S
O273        C278   1.265       .  A
O274        V276   1.901       .  S
O274        C277   1.265       .  A
V275        V276   2.086       .  T
C277        C747   1.482       .  S
C278        C725   1.481       .  S
C279        C813   1.480       .  S
C280        C835   1.480       .  S
O281        V289   1.899       .  S
O281        C291   1.265       .  A
O282        V289   1.900   1_655  S
O282        C292   1.264   1_655  A
O283        V289   1.899       .  S
O283        C293   1.265       .  A
O284        V289   1.891   1_655  S
O284        C294   1.264       .  A
O285        V290   1.906   1_655  S
O285        C294   1.266   1_565  A
O286        V290   1.900       .  S
O286        C293   1.265   1_565  A
O287        V290   1.901       .  S
O287        C292   1.265   1_565  A
O288        V290   1.902       .  S
O288        C291   1.265   1_565  A
V289        V290   2.086   1_545  T
C291        C967   1.480       .  S
C292       C1373   1.472       .  S
C293        C691   1.480       .  S
C294        C669   1.479       .  S
O295        V303   1.903       .  S
O295        C305   1.266       .  A
O296        V303   1.904       .  S
O296        C306   1.265       .  A
O297        V303   1.893   1_455  S
O297        C307   1.264       .  A
O298        V303   1.895       .  S
O298        C308   1.264       .  A
O299        V304   1.902       .  S
O299        C308   1.265       .  A
O300        V304   1.907   1_455  S
O300        C307   1.267       .  A
O301        V304   1.897       .  S
O301        C306   1.264       .  A
O302        V304   1.898       .  S
O302        C305   1.265       .  A
V303        V304   2.085       .  T
C305        C867   1.482       .  S
C306       C1297   1.475       .  S
C307        C647   1.480       .  S
C308        C637   1.479       .  S
O309        V317   1.899       .  S
O309        C319   1.264   1_565  A
O310        V317   1.899       .  S
O310        C320   1.265   1_565  A
O311        V317   1.908       .  S
O311        C321   1.266   1_565  A
O312        V317   1.902       .  S
O312        C322   1.266   1_565  A
O313        V318   1.896       .  S
O313        C322   1.264       .  A
O314        V318   1.889       .  S
O314        C321   1.263       .  A
O315        V318   1.901       .  S
O315        C320   1.266       .  A
O316        V318   1.901       .  S
O316        C319   1.264       .  A
V317        V318   2.086   1_565  T
C319       C1241   1.472       .  S
C320        C791   1.481       .  S
C321        C681   1.479       .  S
C322        C703   1.481       .  S
O323        V331   1.898       .  S
O323        C333   1.263       .  A
O324        V331   1.897       .  S
O324        C334   1.265       .  A
O325        V331   1.901       .  S
O325        C335   1.265       .  A
O326        V331   1.906       .  S
O326        C336   1.266       .  A
O327        V332   1.893       .  S
O327        C336   1.264       .  A
O328        V332   1.897       .  S
O328        C335   1.265       .  A
O329        V332   1.903       .  S
O329        C334   1.265       .  A
O330        V332   1.902       .  S
O330        C333   1.264       .  A
V331        V332   2.086       .  T
C333       C1165   1.471       .  S
C334        C735   1.480       .  S
C335        C625   1.480       .  S
C336        C659   1.480       .  S
O337        V345   1.898       .  S
O337        C347   1.265   1_545  A
O338        V345   1.901       .  S
O338        C348   1.265   1_545  A
O339        V345   1.901   1_455  S
O339        C349   1.265   1_545  A
O340        V345   1.901       .  S
O340        C350   1.266   1_545  A
O341        V346   1.898       .  S
O341        C350   1.264       .  A
O342        V346   1.896   1_455  S
O342        C349   1.264       .  A
O343        V346   1.902       .  S
O343        C348   1.266       .  A
O344        V346   1.903       .  S
O344        C347   1.265       .  A
V345        V346   2.086   1_545  T
C347       C1583   1.482       .  S
C348        C933   1.483       .  S
C349        C603   1.479       .  S
C350        C581   1.481       .  S
O351        V359   1.900       .  S
O351        C361   1.265       .  A
O352        V359   1.901       .  S
O352        C362   1.265       .  A
O353        V359   1.901   1_455  S
O353        C363   1.265       .  A
O354        V359   1.902       .  S
O354        C364   1.265       .  A
O355        V360   1.896       .  S
O355        C364   1.264       .  A
O356        V360   1.897   1_455  S
O356        C363   1.264       .  A
O357        V360   1.899       .  S
O357        C362   1.265       .  A
O358        V360   1.898       .  S
O358        C361   1.265       .  A
V359        V360   2.086       .  T
C361       C1505   1.480       .  S
C362        C845   1.480       .  S
C363        C571   1.480       .  S
C364        C537   1.479       .  S
O365        V373   1.902       .  S
O365        C375   1.266       .  A
O366        V373   1.903       .  S
O366        C376   1.266       .  A
O367        V373   1.902       .  S
O367        C377   1.265       .  A
O368        V373   1.900       .  S
O368        C378   1.265       .  A
O369        V374   1.897       .  S
O369        C378   1.264   1_545  A
O370        V374   1.897       .  S
O370        C377   1.265   1_545  A
O371        V374   1.896       .  S
O371        C376   1.264   1_545  A
O372        V374   1.898       .  S
O372        C375   1.264   1_545  A
V373        V374   2.086   1_565  T
C375        C769   1.482       .  S
C376       C1439   1.481       .  S
C377        C593   1.481       .  S
C378        C615   1.479       .  S
O379        V387   1.901       .  S
O379        C389   1.265       .  A
O380        V387   1.898       .  S
O380        C390   1.265       .  A
O381        V387   1.900       .  S
O381        C391   1.265       .  A
O382        V387   1.901       .  S
O382        C392   1.265       .  A
O383        V388   1.897       .  S
O383        C392   1.264       .  A
O384        V388   1.898       .  S
O384        C391   1.264       .  A
O385        V388   1.901       .  S
O385        C390   1.265       .  A
O386        V388   1.901       .  S
O386        C389   1.265       .  A
V387        V388   2.086       .  T
C389        C713   1.481       .  S
C390       C1429   1.481       .  S
C391        C549   1.480       .  S
C392        C559   1.480       .  S
O393        V401   1.892       .  S
O393        C403   1.264   1_655  A
O394        V401   1.894       .  S
O394        C404   1.264   1_655  A
O395        V401   1.901       .  S
O395        C405   1.265   1_655  A
O396        V401   1.900   1_545  S
O396        C406   1.265   1_655  A
O397        V402   1.896   1_545  S
O397        C406   1.264       .  A
O398        V402   1.894       .  S
O398        C405   1.264       .  A
O399        V402   1.902       .  S
O399        C404   1.265       .  A
O400        V402   1.902       .  S
O400        C403   1.265       .  A
V401        V402   2.086   1_655  T
C403       C1847   1.477       .  S
C404       C1131   1.478       .  S
C405        C493   1.478       .  S
C406        C515   1.477       .  S
O407        V415   1.899       .  S
O407        C417   1.265       .  A
O408        V415   1.899       .  S
O408        C418   1.265   1_655  A
O409        V415   1.903       .  S
O409        C419   1.265   1_655  A
O410        V415   1.903       .  S
O410        C420   1.265   1_655  A
O411        V416   1.892       .  S
O411        C420   1.264       .  A
O412        V416   1.892       .  S
O412        C419   1.263       .  A
O413        V416   1.898       .  S
O413        C418   1.264       .  A
O414        V416   1.898       .  S
O414        C417   1.265   1_455  A
V415        V416   2.086   1_655  T
C417       C1759   1.479       .  S
C418       C1077   1.479       .  S
C419        C527   1.477       .  S
C420        C505   1.478       .  S
O421        V429   1.905       .  S
O421        C431   1.266       .  A
O422        V429   1.904       .  S
O422        C432   1.266       .  A
O423        V429   1.904   1_565  S
O423        C433   1.265       .  A
O424        V429   1.901       .  S
O424        C434   1.265       .  A
O425        V430   1.894       .  S
O425        C434   1.264       .  A
O426        V430   1.892   1_565  S
O426        C433   1.264       .  A
O427        V430   1.895       .  S
O427        C432   1.264       .  A
O428        V430   1.895       .  S
O428        C431   1.264       .  A
V429        V430   2.086       .  T
C431       C1055   1.481       .  S
C432       C1715   1.479       .  S
C433        C449   1.478       .  S
C434        C483   1.478       .  S
O435        V443   1.896       .  S
O435        C445   1.264       .  A
O436        V443   1.896       .  S
O436        C446   1.264       .  A
O437        V443   1.901       .  S
O437        C447   1.265       .  A
O438        V443   1.903       .  S
O438        C448   1.265       .  A
O439        V444   1.891       .  S
O439        C448   1.264       .  A
O440        V444   1.895       .  S
O440        C447   1.264       .  A
O441        V444   1.904       .  S
O441        C446   1.266       .  A
O442        V444   1.904       .  S
O442        C445   1.266       .  A
V443        V444   2.086       .  T
C445        C989   1.480       .  S
C446       C1627   1.481       .  S
C447        C471   1.478       .  S
C448        C461   1.478       .  S
C449        C450   1.400       .  A
C449        C454   1.403       .  A
C450        C451   1.391       .  A
C450        H463   1.083       .  S
C451        C452   1.413       .  A
C451        H464   1.076       .  S
C452        C458   1.427       .  A
C452        C453   1.422       .  A
C453        C455   1.400       .  A
C453        C454   1.407       .  A
C454        H465   1.084       .  S
C455        C456   1.392       .  A
C455        H466   1.084       .  S
C456        C457   1.400       .  A
C456        H467   1.084       .  S
C457        C458   1.422       .  A
C457        C462   1.407       .  A
C458        C459   1.413       .  A
C459        C460   1.391       .  A
C459        H468   1.076       .  S
C460        C461   1.399       .  A
C460        H469   1.083       .  S
C461        C462   1.403       .  A
C462        H470   1.084       .  S
C471        C472   1.400       .  A
C471        C476   1.401       .  A
C472        C473   1.394       .  A
C472        H485   1.083       .  S
C473        C474   1.414       .  A
C473        H486   1.077       .  S
C474        C480   1.428       .  A
C474        C475   1.422       .  A
C475        C477   1.399       .  A
C475        C476   1.405       .  A
C476        H487   1.084       .  S
C477        C478   1.390       .  A
C477        H488   1.084       .  S
C478        C479   1.399       .  A
C478        H489   1.084       .  S
C479        C480   1.422       .  A
C479        C484   1.405       .  A
C480        C481   1.414       .  A
C481        C482   1.394       .  A
C481        H490   1.077       .  S
C482        C483   1.400       .  A
C482        H491   1.083       .  S
C483        C484   1.402       .  A
C484        H492   1.084       .  S
C493        C494   1.400       .  A
C493        C498   1.402   1_455  A
C494        C495   1.393       .  A
C494        H507   1.083       .  S
C495        C496   1.414       .  A
C495        H508   1.077       .  S
C496        C502   1.428       .  A
C496        C497   1.422   1_455  A
C497        C499   1.400       .  A
C497        C498   1.406       .  A
C498        H509   1.084       .  S
C499        C500   1.391       .  A
C499        H510   1.084       .  S
C500        C501   1.400       .  A
C500        H511   1.084       .  S
C501        C502   1.423   1_655  A
C501        C506   1.406       .  A
C502        C503   1.414       .  A
C503        C504   1.393       .  A
C503        H512   1.077       .  S
C504        C505   1.400       .  A
C504        H513   1.083       .  S
C505        C506   1.402   1_455  A
C506        H514   1.084       .  S
C515        C516   1.400       .  A
C515        C520   1.402   1_455  A
C516        C517   1.393       .  A
C516        H529   1.083       .  S
C517        C518   1.414       .  A
C517        H530   1.077       .  S
C518        C524   1.428       .  A
C518        C519   1.422   1_455  A
C519        C521   1.400       .  A
C519        C520   1.405       .  A
C520        H531   1.085       .  S
C521        C522   1.390       .  A
C521        H532   1.084       .  S
C522        C523   1.399       .  A
C522        H533   1.084       .  S
C523        C524   1.423   1_655  A
C523        C528   1.406       .  A
C524        C525   1.413       .  A
C525        C526   1.393       .  A
C525        H534   1.077       .  S
C526        C527   1.400       .  A
C526        H535   1.083       .  S
C527        C528   1.401   1_455  A
C528        H536   1.085       .  S
C537        C538   1.400       .  A
C537        C542   1.401       .  A
C538        C539   1.397       .  A
C538        H551   1.083       .  S
C539        C540   1.416       .  A
C539        H552   1.077       .  S
C540        C546   1.430       .  A
C540        C541   1.422       .  A
C541        C543   1.399       .  A
C541        C542   1.403       .  A
C542        H553   1.084       .  S
C543        C544   1.389       .  A
C543        H554   1.084       .  S
C544        C545   1.399       .  A
C544        H555   1.084       .  S
C545        C546   1.423       .  A
C545        C550   1.404       .  A
C546        C547   1.415       .  A
C547        C548   1.396       .  A
C547        H556   1.077       .  S
C548        C549   1.401       .  A
C548        H557   1.083       .  S
C549        C550   1.401       .  A
C550        H558   1.084       .  S
C559        C560   1.400       .  A
C559        C564   1.402       .  A
C560        C561   1.397       .  A
C560        H573   1.083       .  S
C561        C562   1.415       .  A
C561        H574   1.077       .  S
C562        C568   1.430       .  A
C562        C563   1.422       .  A
C563        C565   1.399       .  A
C563        C564   1.404       .  A
C564        H575   1.084       .  S
C565        C566   1.389       .  A
C565        H576   1.084       .  S
C566        C567   1.399       .  A
C566        H577   1.084       .  S
C567        C568   1.423       .  A
C567        C572   1.405       .  A
C568        C569   1.415       .  A
C569        C570   1.396       .  A
C569        H578   1.077       .  S
C570        C571   1.401       .  A
C570        H579   1.083       .  S
C571        C572   1.401       .  A
C572        H580   1.084       .  S
C581        C582   1.401       .  A
C581        C586   1.401   1_565  A
C582        C583   1.397       .  A
C582        H595   1.083       .  S
C583        C584   1.415       .  A
C583        H596   1.077       .  S
C584        C590   1.431       .  A
C584        C585   1.423   1_565  A
C585        C587   1.399       .  A
C585        C586   1.404       .  A
C586        H597   1.084       .  S
C587        C588   1.388       .  A
C587        H598   1.084       .  S
C588        C589   1.399       .  A
C588        H599   1.084       .  S
C589        C590   1.422   1_545  A
C589        C594   1.403       .  A
C590        C591   1.416       .  A
C591        C592   1.398       .  A
C591        H600   1.077       .  S
C592        C593   1.401       .  A
C592        H601   1.083       .  S
C593        C594   1.401   1_565  A
C594        H602   1.084       .  S
C603        C604   1.401   1_565  A
C603        C608   1.401       .  A
C604        C605   1.397       .  A
C604        H617   1.083       .  S
C605        C606   1.416   1_545  A
C605        H618   1.077       .  S
C606        C612   1.430       .  A
C606        C607   1.422       .  A
C607        C609   1.399       .  A
C607        C608   1.402       .  A
C608        H619   1.084       .  S
C609        C610   1.388       .  A
C609        H620   1.084       .  S
C610        C611   1.399       .  A
C610        H621   1.084       .  S
C611        C612   1.423       .  A
C611        C616   1.403       .  A
C612        C613   1.415   1_565  A
C613        C614   1.396       .  A
C613        H622   1.077       .  S
C614        C615   1.401   1_545  A
C614        H623   1.083       .  S
C615        C616   1.401       .  A
C616        H624   1.084       .  S
C625        C626   1.400       .  A
C625        C630   1.402       .  A
C626        C627   1.394       .  A
C626        H639   1.083       .  S
C627        C628   1.414       .  A
C627        H640   1.077       .  S
C628        C634   1.429       .  A
C628        C629   1.422       .  A
C629        C631   1.400       .  A
C629        C630   1.406       .  A
C630        H641   1.084       .  S
C631        C632   1.390       .  A
C631        H642   1.084       .  S
C632        C633   1.400       .  A
C632        H643   1.084       .  S
C633        C634   1.422       .  A
C633        C638   1.406       .  A
C634        C635   1.414       .  A
C635        C636   1.394       .  A
C635        H644   1.077       .  S
C636        C637   1.400       .  A
C636        H645   1.083       .  S
C637        C638   1.402       .  A
C638        H646   1.084       .  S
C647        C648   1.401       .  A
C647        C652   1.402       .  A
C648        C649   1.394       .  A
C648        H661   1.083       .  S
C649        C650   1.414       .  A
C649        H662   1.077       .  S
C650        C656   1.429       .  A
C650        C651   1.423       .  A
C651        C653   1.400       .  A
C651        C652   1.407       .  A
C652        H663   1.084       .  S
C653        C654   1.391       .  A
C653        H664   1.084       .  S
C654        C655   1.400       .  A
C654        H665   1.084       .  S
C655        C656   1.423       .  A
C655        C660   1.407       .  A
C656        C657   1.414       .  A
C657        C658   1.394       .  A
C657        H666   1.077       .  S
C658        C659   1.401       .  A
C658        H667   1.083       .  S
C659        C660   1.402       .  A
C660        H668   1.084       .  S
C669        C670   1.400       .  A
C669        C674   1.403   1_545  A
C670        C671   1.392       .  A
C670        H683   1.083       .  S
C671        C672   1.413       .  A
C671        H684   1.076       .  S
C672        C678   1.428       .  A
C672        C673   1.422   1_545  A
C673        C675   1.400       .  A
C673        C674   1.407       .  A
C674        H685   1.084       .  S
C675        C676   1.392       .  A
C675        H686   1.084       .  S
C676        C677   1.400       .  A
C676        H687   1.084       .  S
C677        C678   1.423   1_565  A
C677        C682   1.408       .  A
C678        C679   1.413       .  A
C679        C680   1.391       .  A
C679        H688   1.076       .  S
C680        C681   1.400       .  A
C680        H689   1.083       .  S
C681        C682   1.403   1_545  A
C682        H690   1.084       .  S
C691        C692   1.401       .  A
C691        C696   1.402   1_545  A
C692        C693   1.396       .  A
C692        H705   1.083       .  S
C693        C694   1.415       .  A
C693        H706   1.077       .  S
C694        C700   1.430       .  A
C694        C695   1.422   1_545  A
C695        C697   1.399       .  A
C695        C696   1.405       .  A
C696        H707   1.084       .  S
C697        C698   1.389       .  A
C697        H708   1.084       .  S
C698        C699   1.399       .  A
C698        H709   1.084       .  S
C699        C700   1.423   1_565  A
C699        C704   1.405       .  A
C700        C701   1.415       .  A
C701        C702   1.396       .  A
C701        H710   1.077       .  S
C702        C703   1.401       .  A
C702        H711   1.083       .  S
C703        C704   1.401   1_545  A
C704        H712   1.084       .  S
C713        C714   1.401       .  A
C713        C718   1.401       .  A
C714        C715   1.398       .  A
C714        H727   1.083       .  S
C715        C716   1.415       .  A
C715        H728   1.077       .  S
C716        C722   1.432   1_556  A
C716        C717   1.423       .  A
C717        C719   1.399       .  A
C717        C718   1.404       .  A
C718        H729   1.084       .  S
C719        C720   1.388   1_556  A
C719        H730   1.084       .  S
C720        C721   1.399       .  A
C720        H731   1.084       .  S
C721        C722   1.422       .  A
C721        C726   1.404       .  A
C722        C723   1.416       .  A
C723        C724   1.399       .  A
C723        H732   1.077       .  S
C724        C725   1.401       .  A
C724        H733   1.083       .  S
C725        C726   1.401       .  A
C726        H734   1.084       .  S
C735        C736   1.401       .  A
C735        C740   1.401       .  A
C736        C737   1.399       .  A
C736        H749   1.083       .  S
C737        C738   1.416       .  A
C737        H750   1.077       .  S
C738        C744   1.432       .  A
C738        C739   1.422       .  A
C739        C741   1.399       .  A
C739        C740   1.403       .  A
C740        H751   1.085       .  S
C741        C742   1.388       .  A
C741        H752   1.084       .  S
C742        C743   1.399       .  A
C742        H753   1.084       .  S
C743        C744   1.423       .  A
C743        C748   1.404       .  A
C744        C745   1.415       .  A
C745        C746   1.399       .  A
C745        H754   1.077       .  S
C746        C747   1.402       .  A
C746        H755   1.083       .  S
C747        C748   1.401       .  A
C748        H756   1.084       .  S
C757        C758   1.401       .  A
C757        C762   1.403   1_565  A
C758        C759   1.397       .  A
C758        H771   1.083       .  S
C759        C760   1.415       .  A
C759        H772   1.077       .  S
C760        C766   1.431   1_554  A
C760        C761   1.422   1_565  A
C761        C763   1.399       .  A
C761        C762   1.405       .  A
C762        H773   1.084       .  S
C763        C764   1.389   1_554  A
C763        H774   1.084       .  S
C764        C765   1.399       .  A
C764        H775   1.084       .  S
C765        C766   1.422   1_545  A
C765        C770   1.405       .  A
C766        C767   1.415       .  A
C767        C768   1.397       .  A
C767        H776   1.077       .  S
C768        C769   1.401       .  A
C768        H777   1.083       .  S
C769        C770   1.402   1_565  A
C770        H778   1.084       .  S
C779        C780   1.401   1_565  A
C779        C784   1.403       .  A
C780        C781   1.395       .  A
C780        H793   1.083       .  S
C781        C782   1.414   1_545  A
C781        H794   1.077       .  S
C782        C788   1.430   1_565  A
C782        C783   1.423       .  A
C783        C785   1.400       .  A
C783        C784   1.407       .  A
C784        H795   1.084       .  S
C785        C786   1.390       .  A
C785        H796   1.084       .  S
C786        C787   1.400       .  A
C786        H797   1.084       .  S
C787        C788   1.422   1_565  A
C787        C792   1.406       .  A
C788        C789   1.415       .  A
C789        C790   1.396       .  A
C789        H798   1.077       .  S
C790        C791   1.400       .  A
C790        H799   1.083       .  S
C791        C792   1.403   1_545  A
C792        H800   1.084       .  S
C801        C802   1.400       .  A
C801        C806   1.403       .  A
C802        C803   1.392       .  A
C802        H815   1.083       .  S
C803        C804   1.414       .  A
C803        H816   1.076       .  S
C804        C810   1.428       .  A
C804        C805   1.422       .  A
C805        C807   1.400       .  A
C805        C806   1.407       .  A
C806        H817   1.084       .  S
C807        C808   1.392       .  A
C807        H818   1.084       .  S
C808        C809   1.400       .  A
C808        H819   1.084       .  S
C809        C810   1.422       .  A
C809        C814   1.407       .  A
C810        C811   1.413       .  A
C811        C812   1.392       .  A
C811        H820   1.076       .  S
C812        C813   1.400       .  A
C812        H821   1.083       .  S
C813        C814   1.403       .  A
C814        H822   1.084       .  S
C823        C824   1.401       .  A
C823        C828   1.401       .  A
C824        C825   1.396       .  A
C824        H837   1.083       .  S
C825        C826   1.415       .  A
C825        H838   1.077       .  S
C826        C832   1.430       .  A
C826        C827   1.423       .  A
C827        C829   1.399       .  A
C827        C828   1.405       .  A
C828        H839   1.084       .  S
C829        C830   1.390       .  A
C829        H840   1.084       .  S
C830        C831   1.399       .  A
C830        H841   1.084       .  S
C831        C832   1.423       .  A
C831        C836   1.405       .  A
C832        C833   1.415       .  A
C833        C834   1.396       .  A
C833        H842   1.077       .  S
C834        C835   1.401       .  A
C834        H843   1.083       .  S
C835        C836   1.401       .  A
C836        H844   1.084       .  S
C845        C846   1.401       .  A
C845        C850   1.401       .  A
C846        C847   1.396       .  A
C846        H859   1.083       .  S
C847        C848   1.415       .  A
C847        H860   1.077       .  S
C848        C854   1.431   1_556  A
C848        C849   1.423       .  A
C849        C851   1.399   1_655  A
C849        C850   1.405       .  A
C850        H861   1.084       .  S
C851        C852   1.389   1_556  A
C851        H862   1.084       .  S
C852        C853   1.399   1_455  A
C852        H863   1.084       .  S
C853        C854   1.422       .  A
C853        C858   1.404       .  A
C854        C855   1.416       .  A
C855        C856   1.397       .  A
C855        H864   1.077       .  S
C856        C857   1.400       .  A
C856        H865   1.083       .  S
C857        C858   1.402       .  A
C858        H866   1.084   1_655  S
C867        C868   1.401       .  A
C867        C872   1.402       .  A
C868        C869   1.398       .  A
C868        H881   1.083       .  S
C869        C870   1.416       .  A
C869        H882   1.077       .  S
C870        C876   1.431       .  A
C870        C871   1.422       .  A
C871        C873   1.399       .  A
C871        C872   1.404       .  A
C872        H883   1.084       .  S
C873        C874   1.389       .  A
C873        H884   1.084       .  S
C874        C875   1.399       .  A
C874        H885   1.084       .  S
C875        C876   1.423       .  A
C875        C880   1.406       .  A
C876        C877   1.415       .  A
C877        C878   1.397       .  A
C877        H886   1.077       .  S
C878        C879   1.401       .  A
C878        H887   1.083       .  S
C879        C880   1.402       .  A
C880        H888   1.084       .  S
C889        C890   1.401       .  A
C889        C894   1.401   1_565  A
C890        C891   1.398       .  A
C890        H903   1.083       .  S
C891        C892   1.416       .  A
C891        H904   1.077       .  S
C892        C898   1.430       .  A
C892        C893   1.422   1_565  A
C893        C895   1.398       .  A
C893        C894   1.402       .  A
C894        H905   1.084       .  S
C895        C896   1.387       .  A
C895        H906   1.084       .  S
C896        C897   1.398       .  A
C896        H907   1.084       .  S
C897        C898   1.423   1_545  A
C897        C902   1.403       .  A
C898        C899   1.415       .  A
C899        C900   1.398       .  A
C899        H908   1.077       .  S
C900        C901   1.401       .  A
C900        H909   1.083       .  S
C901        C902   1.400   1_565  A
C902        H910   1.084       .  S
C911        C912   1.401   1_565  A
C911        C916   1.401       .  A
C912        C913   1.398       .  A
C912        H925   1.083       .  S
C913        C914   1.415   1_545  A
C913        H926   1.077       .  S
C914        C920   1.431       .  A
C914        C915   1.423       .  A
C915        C917   1.399       .  A
C915        C916   1.403       .  A
C916        H927   1.084       .  S
C917        C918   1.388       .  A
C917        H928   1.084       .  S
C918        C919   1.399       .  A
C918        H929   1.084       .  S
C919        C920   1.422       .  A
C919        C924   1.403       .  A
C920        C921   1.416   1_565  A
C921        C922   1.398       .  A
C921        H930   1.077       .  S
C922        C923   1.401   1_545  A
C922        H931   1.083       .  S
C923        C924   1.401       .  A
C924        H932   1.084       .  S
C933        C934   1.401       .  A
C933        C938   1.403   1_565  A
C934        C935   1.397       .  A
C934        H947   1.083       .  S
C935        C936   1.415   1_655  A
C935        H948   1.077       .  S
C936        C942   1.432   1_556  A
C936        C937   1.423   1_565  A
C937        C939   1.400       .  A
C937        C938   1.406   1_455  A
C938        H949   1.084       .  S
C939        C940   1.390   1_556  A
C939        H950   1.084       .  S
C940        C941   1.400       .  A
C940        H951   1.084       .  S
C941        C942   1.422   1_545  A
C941        C946   1.406       .  A
C942        C943   1.415       .  A
C943        C944   1.398       .  A
C943        H952   1.077       .  S
C944        C945   1.401       .  A
C944        H953   1.083       .  S
C945        C946   1.403   1_565  A
C946        H954   1.084       .  S
C955        C956   1.400   1_565  A
C955        C960   1.403   1_655  A
C956        C957   1.395       .  A
C956        H969   1.083       .  S
C957        C958   1.414   1_545  A
C957        H970   1.077       .  S
C958        C964   1.430       .  A
C958        C959   1.423   1_655  A
C959        C961   1.400       .  A
C959        C960   1.408       .  A
C960        H971   1.084       .  S
C961        C962   1.391       .  A
C961        H972   1.084       .  S
C962        C963   1.400       .  A
C962        H973   1.084       .  S
C963        C964   1.422   1_455  A
C963        C968   1.407       .  A
C964        C965   1.415   1_565  A
C965        C966   1.395       .  A
C965        H974   1.077       .  S
C966        C967   1.400   1_655  A
C966        H975   1.083       .  S
C967        C968   1.403   1_545  A
C968        H976   1.084       .  S
C977        C978   1.400       .  A
C977        C982   1.402       .  A
C978        C979   1.396       .  A
C978        H991   1.083       .  S
C979        C980   1.415       .  A
C979        H992   1.077       .  S
C980        C986   1.430       .  A
C980        C981   1.422       .  A
C981        C983   1.400       .  A
C981        C982   1.406       .  A
C982        H993   1.084       .  S
C983        C984   1.391       .  A
C983        H994   1.084       .  S
C984        C985   1.400       .  A
C984        H995   1.084       .  S
C985        C986   1.423       .  A
C985        C990   1.407       .  A
C986        C987   1.414       .  A
C987        C988   1.395       .  A
C987        H996   1.077       .  S
C988        C989   1.400       .  A
C988        H997   1.083       .  S
C989        C990   1.402       .  A
C990        H998   1.084       .  S
C999       C1000   1.399       .  A
C999       C1004   1.402       .  A
C1000      C1001   1.394       .  A
C1000      H1013   1.083       .  S
C1001      C1002   1.415       .  A
C1001      H1014   1.077       .  S
C1002      C1008   1.428       .  A
C1002      C1003   1.422       .  A
C1003      C1005   1.400       .  A
C1003      C1004   1.405       .  A
C1004      H1015   1.084       .  S
C1005      C1006   1.390       .  A
C1005      H1016   1.084       .  S
C1006      C1007   1.400       .  A
C1006      H1017   1.084       .  S
C1007      C1008   1.423       .  A
C1007      C1012   1.405       .  A
C1008      C1009   1.414       .  A
C1009      C1010   1.393       .  A
C1009      H1018   1.077       .  S
C1010      C1011   1.399       .  A
C1010      H1019   1.083       .  S
C1011      C1012   1.402       .  A
C1012      H1020   1.084       .  S
C1021      C1022   1.400       .  A
C1021      C1026   1.403       .  A
C1022      C1023   1.394       .  A
C1022      H1035   1.083       .  S
C1023      C1024   1.414       .  A
C1023      H1036   1.077       .  S
C1024      C1030   1.429       .  A
C1024      C1025   1.422       .  A
C1025      C1027   1.400       .  A
C1025      C1026   1.406       .  A
C1026      H1037   1.084       .  S
C1027      C1028   1.390       .  A
C1027      H1038   1.084       .  S
C1028      C1029   1.400       .  A
C1028      H1039   1.084       .  S
C1029      C1030   1.422       .  A
C1029      C1034   1.405       .  A
C1030      C1031   1.414       .  A
C1031      C1032   1.394       .  A
C1031      H1040   1.077       .  S
C1032      C1033   1.400       .  A
C1032      H1041   1.083       .  S
C1033      C1034   1.403       .  A
C1034      H1042   1.084       .  S
C1043      C1044   1.401       .  A
C1043      C1048   1.402       .  A
C1044      C1045   1.396       .  A
C1044      H1057   1.083   1_545  S
C1045      C1046   1.414       .  A
C1045      H1058   1.077   1_545  S
C1046      C1052   1.431       .  A
C1046      C1047   1.423       .  A
C1047      C1049   1.399       .  A
C1047      C1048   1.406       .  A
C1048      H1059   1.084       .  S
C1049      C1050   1.390       .  A
C1049      H1060   1.084       .  S
C1050      C1051   1.400       .  A
C1050      H1061   1.084       .  S
C1051      C1052   1.422       .  A
C1051      C1056   1.404       .  A
C1052      C1053   1.416       .  A
C1053      C1054   1.398       .  A
C1053      H1062   1.077   1_545  S
C1054      C1055   1.400       .  A
C1054      H1063   1.083       .  S
C1055      C1056   1.403       .  A
C1056      H1064   1.084       .  S
C1065      C1066   1.401       .  A
C1065      C1070   1.401   1_455  A
C1066      C1067   1.397       .  A
C1066      H1079   1.083       .  S
C1067      C1068   1.415       .  A
C1067      H1080   1.077       .  S
C1068      C1074   1.430       .  A
C1068      C1069   1.422   1_455  A
C1069      C1071   1.399       .  A
C1069      C1070   1.403       .  A
C1070      H1081   1.084       .  S
C1071      C1072   1.388       .  A
C1071      H1082   1.084       .  S
C1072      C1073   1.399       .  A
C1072      H1083   1.084       .  S
C1073      C1074   1.422   1_655  A
C1073      C1078   1.403       .  A
C1074      C1075   1.415       .  A
C1075      C1076   1.397       .  A
C1075      H1084   1.077       .  S
C1076      C1077   1.401       .  A
C1076      H1085   1.083       .  S
C1077      C1078   1.401   1_455  A
C1078      H1086   1.084       .  S
C1087      C1088   1.399   1_455  A
C1087      C1092   1.401       .  A
C1088      C1089   1.397       .  A
C1088      H1101   1.083       .  S
C1089      C1090   1.416   1_655  A
C1089      H1102   1.077       .  S
C1090      C1096   1.429       .  A
C1090      C1091   1.422       .  A
C1091      C1093   1.399       .  A
C1091      C1092   1.402       .  A
C1092      H1103   1.085       .  S
C1093      C1094   1.388       .  A
C1093      H1104   1.084       .  S
C1094      C1095   1.399       .  A
C1094      H1105   1.084       .  S
C1095      C1096   1.423       .  A
C1095      C1100   1.403       .  A
C1096      C1097   1.415   1_455  A
C1097      C1098   1.396       .  A
C1097      H1106   1.077       .  S
C1098      C1099   1.400   1_655  A
C1098      H1107   1.083       .  S
C1099      C1100   1.400       .  A
C1100      H1108   1.085       .  S
C1109      C1110   1.401       .  A
C1109      C1114   1.400   1_455  A
C1110      C1111   1.397       .  A
C1110      H1123   1.083       .  S
C1111      C1112   1.415       .  A
C1111      H1124   1.077       .  S
C1112      C1118   1.430       .  A
C1112      C1113   1.423   1_455  A
C1113      C1115   1.398       .  A
C1113      C1114   1.404       .  A
C1114      H1125   1.085       .  S
C1115      C1116   1.388       .  A
C1115      H1126   1.084       .  S
C1116      C1117   1.399       .  A
C1116      H1127   1.084       .  S
C1117      C1118   1.422   1_655  A
C1117      C1122   1.403       .  A
C1118      C1119   1.416       .  A
C1119      C1120   1.398       .  A
C1119      H1128   1.077       .  S
C1120      C1121   1.400       .  A
C1120      H1129   1.083       .  S
C1121      C1122   1.401   1_455  A
C1122      H1130   1.085       .  S
C1131      C1132   1.400   1_465  A
C1131      C1136   1.402       .  A
C1132      C1133   1.393       .  A
C1132      H1145   1.083       .  S
C1133      C1134   1.414   1_645  A
C1133      H1146   1.077       .  S
C1134      C1140   1.429       .  A
C1134      C1135   1.422       .  A
C1135      C1137   1.400       .  A
C1135      C1136   1.406       .  A
C1136      H1147   1.084       .  S
C1137      C1138   1.391       .  A
C1137      H1148   1.084       .  S
C1138      C1139   1.400       .  A
C1138      H1149   1.084       .  S
C1139      C1140   1.423       .  A
C1139      C1144   1.407       .  A
C1140      C1141   1.413   1_465  A
C1141      C1142   1.393       .  A
C1141      H1150   1.077       .  S
C1142      C1143   1.401   1_655  A
C1142      H1151   1.083       .  S
C1143      C1144   1.402   1_545  A
C1144      H1152   1.084       .  S
C1153      C1154   1.399       .  A
C1153      C1158   1.400       .  A
C1154      C1155   1.395       .  A
C1154      H1167   1.084       .  S
C1155      C1156   1.414       .  A
C1155      H1168   1.078       .  S
C1156      C1162   1.428       .  A
C1156      C1157   1.423       .  A
C1157      C1159   1.399       .  A
C1157      C1158   1.405       .  A
C1158      H1169   1.085       .  S
C1159      C1160   1.391       .  A
C1159      H1170   1.084       .  S
C1160      C1161   1.400       .  A
C1160      H1171   1.084       .  S
C1161      C1162   1.422       .  A
C1161      C1166   1.405       .  A
C1162      C1163   1.415       .  A
C1163      C1164   1.396       .  A
C1163      H1172   1.078       .  S
C1164      C1165   1.398       .  A
C1164      H1173   1.084       .  S
C1165      C1166   1.399       .  A
C1166      H1174   1.085       .  S
C1175      C1176   1.401       .  A
C1175      C1180   1.401       .  A
C1176      C1177   1.395       .  A
C1176      H1189   1.083       .  S
C1177      C1178   1.414       .  A
C1177      H1190   1.077       .  S
C1178      C1184   1.430       .  A
C1178      C1179   1.423       .  A
C1179      C1181   1.399       .  A
C1179      C1180   1.405       .  A
C1180      H1191   1.084       .  S
C1181      C1182   1.389       .  A
C1181      H1192   1.084       .  S
C1182      C1183   1.399       .  A
C1182      H1193   1.084       .  S
C1183      C1184   1.422       .  A
C1183      C1188   1.404       .  A
C1184      C1185   1.415       .  A
C1185      C1186   1.396       .  A
C1185      H1194   1.077       .  S
C1186      C1187   1.400       .  A
C1186      H1195   1.083       .  S
C1187      C1188   1.401       .  A
C1188      H1196   1.084       .  S
C1197      C1198   1.400       .  A
C1197      C1202   1.402       .  A
C1198      C1199   1.396       .  A
C1198      H1211   1.083       .  S
C1199      C1200   1.415       .  A
C1199      H1212   1.077       .  S
C1200      C1206   1.429       .  A
C1200      C1201   1.422       .  A
C1201      C1203   1.399       .  A
C1201      C1202   1.404       .  A
C1202      H1213   1.084       .  S
C1203      C1204   1.389       .  A
C1203      H1214   1.084       .  S
C1204      C1205   1.399       .  A
C1204      H1215   1.084       .  S
C1205      C1206   1.422       .  A
C1205      C1210   1.404       .  A
C1206      C1207   1.415       .  A
C1207      C1208   1.396       .  A
C1207      H1216   1.077       .  S
C1208      C1209   1.400       .  A
C1208      H1217   1.083       .  S
C1209      C1210   1.402       .  A
C1210      H1218   1.084       .  S
C1219      C1220   1.400       .  A
C1219      C1224   1.401       .  A
C1220      C1221   1.396       .  A
C1220      H1233   1.083       .  S
C1221      C1222   1.415       .  A
C1221      H1234   1.077       .  S
C1222      C1228   1.429       .  A
C1222      C1223   1.422       .  A
C1223      C1225   1.399       .  A
C1223      C1224   1.403       .  A
C1224      H1235   1.084       .  S
C1225      C1226   1.388       .  A
C1225      H1236   1.084       .  S
C1226      C1227   1.399       .  A
C1226      H1237   1.084       .  S
C1227      C1228   1.422       .  A
C1227      C1232   1.403       .  A
C1228      C1229   1.415       .  A
C1229      C1230   1.396       .  A
C1229      H1238   1.077       .  S
C1230      C1231   1.400       .  A
C1230      H1239   1.083       .  S
C1231      C1232   1.401       .  A
C1232      H1240   1.084       .  S
C1241      C1242   1.398   1_545  A
C1241      C1246   1.400       .  A
C1242      C1243   1.396       .  A
C1242      H1255   1.084       .  S
C1243      C1244   1.415   1_565  A
C1243      H1256   1.078       .  S
C1244      C1250   1.428       .  A
C1244      C1245   1.422       .  A
C1245      C1247   1.400       .  A
C1245      C1246   1.405       .  A
C1246      H1257   1.085       .  S
C1247      C1248   1.391       .  A
C1247      H1258   1.084       .  S
C1248      C1249   1.400       .  A
C1248      H1259   1.084       .  S
C1249      C1250   1.422       .  A
C1249      C1254   1.405       .  A
C1250      C1251   1.415   1_545  A
C1251      C1252   1.396       .  A
C1251      H1260   1.078       .  S
C1252      C1253   1.399   1_565  A
C1252      H1261   1.083       .  S
C1253      C1254   1.401       .  A
C1254      H1262   1.085       .  S
C1263      C1264   1.400       .  A
C1263      C1268   1.401       .  A
C1264      C1265   1.395       .  A
C1264      H1277   1.083   1_545  S
C1265      C1266   1.414       .  A
C1265      H1278   1.077   1_545  S
C1266      C1272   1.430       .  A
C1266      C1267   1.423       .  A
C1267      C1269   1.399       .  A
C1267      C1268   1.405       .  A
C1268      H1279   1.084       .  S
C1269      C1270   1.390       .  A
C1269      H1280   1.084       .  S
C1270      C1271   1.399       .  A
C1270      H1281   1.084       .  S
C1271      C1272   1.422       .  A
C1271      C1276   1.405       .  A
C1272      C1273   1.415       .  A
C1273      C1274   1.396       .  A
C1273      H1282   1.077   1_545  S
C1274      C1275   1.400       .  A
C1274      H1283   1.083   1_545  S
C1275      C1276   1.401       .  A
C1276      H1284   1.084       .  S
C1285      C1286   1.398       .  A
C1285      C1290   1.400   1_655  A
C1286      C1287   1.397       .  A
C1286      H1299   1.083       .  S
C1287      C1288   1.416       .  A
C1287      H1300   1.078       .  S
C1288      C1294   1.429       .  A
C1288      C1289   1.422   1_655  A
C1289      C1291   1.400       .  A
C1289      C1290   1.404       .  A
C1290      H1301   1.085       .  S
C1291      C1292   1.391       .  A
C1291      H1302   1.084       .  S
C1292      C1293   1.400       .  A
C1292      H1303   1.084       .  S
C1293      C1294   1.423   1_455  A
C1293      C1298   1.406       .  A
C1294      C1295   1.414       .  A
C1295      C1296   1.396       .  A
C1295      H1304   1.078       .  S
C1296      C1297   1.399       .  A
C1296      H1305   1.084       .  S
C1297      C1298   1.400   1_655  A
C1298      H1306   1.085       .  S
C1307      C1308   1.400       .  A
C1307      C1312   1.402   1_455  A
C1308      C1309   1.394       .  A
C1308      H1321   1.083       .  S
C1309      C1310   1.414       .  A
C1309      H1322   1.077       .  S
C1310      C1316   1.429       .  A
C1310      C1311   1.422   1_455  A
C1311      C1313   1.400       .  A
C1311      C1312   1.405       .  A
C1312      H1323   1.084       .  S
C1313      C1314   1.390       .  A
C1313      H1324   1.084       .  S
C1314      C1315   1.400       .  A
C1314      H1325   1.084       .  S
C1315      C1316   1.422   1_655  A
C1315      C1320   1.405       .  A
C1316      C1317   1.414       .  A
C1317      C1318   1.394       .  A
C1317      H1326   1.077       .  S
C1318      C1319   1.400       .  A
C1318      H1327   1.083       .  S
C1319      C1320   1.402   1_455  A
C1320      H1328   1.084       .  S
C1329      C1330   1.401       .  A
C1329      C1334   1.400   1_655  A
C1330      C1331   1.399       .  A
C1330      H1343   1.083       .  S
C1331      C1332   1.416       .  A
C1331      H1344   1.077       .  S
C1332      C1338   1.430       .  A
C1332      C1333   1.422   1_655  A
C1333      C1335   1.398       .  A
C1333      C1334   1.401       .  A
C1334      H1345   1.085       .  S
C1335      C1336   1.386       .  A
C1335      H1346   1.084       .  S
C1336      C1337   1.398       .  A
C1336      H1347   1.084       .  S
C1337      C1338   1.422   1_455  A
C1337      C1342   1.401       .  A
C1338      C1339   1.416       .  A
C1339      C1340   1.399       .  A
C1339      H1348   1.077       .  S
C1340      C1341   1.401       .  A
C1340      H1349   1.083       .  S
C1341      C1342   1.400   1_655  A
C1342      H1350   1.085       .  S
C1351      C1352   1.401       .  A
C1351      C1356   1.400   1_455  A
C1352      C1353   1.399       .  A
C1352      H1365   1.083       .  S
C1353      C1354   1.416       .  A
C1353      H1366   1.077       .  S
C1354      C1360   1.431       .  A
C1354      C1355   1.423   1_455  A
C1355      C1357   1.398       .  A
C1355      C1356   1.402       .  A
C1356      H1367   1.085       .  S
C1357      C1358   1.387       .  A
C1357      H1368   1.084       .  S
C1358      C1359   1.398       .  A
C1358      H1369   1.084       .  S
C1359      C1360   1.422   1_655  A
C1359      C1364   1.402       .  A
C1360      C1361   1.416       .  A
C1361      C1362   1.399       .  A
C1361      H1370   1.077       .  S
C1362      C1363   1.401       .  A
C1362      H1371   1.083       .  S
C1363      C1364   1.401   1_455  A
C1364      H1372   1.084       .  S
C1373      C1374   1.398   1_455  A
C1373      C1378   1.399   1_545  A
C1374      C1375   1.397       .  A
C1374      H1387   1.084       .  S
C1375      C1376   1.415       .  A
C1375      H1388   1.078       .  S
C1376      C1382   1.429       .  A
C1376      C1377   1.423   1_645  A
C1377      C1379   1.399       .  A
C1377      C1378   1.405       .  A
C1378      H1389   1.085       .  S
C1379      C1380   1.390       .  A
C1379      H1390   1.084       .  S
C1380      C1381   1.399       .  A
C1380      H1391   1.084       .  S
C1381      C1382   1.422   1_465  A
C1381      C1386   1.404       .  A
C1382      C1383   1.415       .  A
C1383      C1384   1.397       .  A
C1383      H1392   1.078       .  S
C1384      C1385   1.399       .  A
C1384      H1393   1.083       .  S
C1385      C1386   1.400   1_645  A
C1386      H1394   1.085       .  S
C1395      C1396   1.400       .  A
C1395      C1400   1.402   1_665  A
C1396      C1397   1.396       .  A
C1396      H1409   1.083       .  S
C1397      C1398   1.415       .  A
C1397      H1410   1.077       .  S
C1398      C1404   1.429       .  A
C1398      C1399   1.422   1_665  A
C1399      C1401   1.400       .  A
C1399      C1400   1.405       .  A
C1400      H1411   1.084       .  S
C1401      C1402   1.390       .  A
C1401      H1412   1.084       .  S
C1402      C1403   1.399       .  A
C1402      H1413   1.084       .  S
C1403      C1404   1.423   1_445  A
C1403      C1408   1.406       .  A
C1404      C1405   1.413       .  A
C1405      C1406   1.393       .  A
C1405      H1414   1.077       .  S
C1406      C1407   1.401   1_655  A
C1406      H1415   1.083       .  S
C1407      C1408   1.401   1_565  A
C1408      H1416   1.084       .  S
C1417      C1418   1.400       .  A
C1417      C1422   1.402       .  A
C1418      C1419   1.395       .  A
C1418      H1431   1.083       .  S
C1419      C1420   1.415       .  A
C1419      H1432   1.077       .  S
C1420      C1426   1.430       .  A
C1420      C1421   1.422       .  A
C1421      C1423   1.399       .  A
C1421      C1422   1.405       .  A
C1422      H1433   1.084       .  S
C1423      C1424   1.390       .  A
C1423      H1434   1.084       .  S
C1424      C1425   1.400       .  A
C1424      H1435   1.084       .  S
C1425      C1426   1.422       .  A
C1425      C1430   1.405       .  A
C1426      C1427   1.415       .  A
C1427      C1428   1.395       .  A
C1427      H1436   1.077       .  S
C1428      C1429   1.400       .  A
C1428      H1437   1.083       .  S
C1429      C1430   1.402       .  A
C1430      H1438   1.084       .  S
C1439      C1440   1.401   1_565  A
C1439      C1444   1.402       .  A
C1440      C1441   1.394       .  A
C1440      H1453   1.083       .  S
C1441      C1442   1.414   1_545  A
C1441      H1454   1.077       .  S
C1442      C1448   1.430       .  A
C1442      C1443   1.423       .  A
C1443      C1445   1.399       .  A
C1443      C1444   1.406       .  A
C1444      H1455   1.084       .  S
C1445      C1446   1.390       .  A
C1445      H1456   1.084       .  S
C1446      C1447   1.400       .  A
C1446      H1457   1.084       .  S
C1447      C1448   1.422       .  A
C1447      C1452   1.405       .  A
C1448      C1449   1.415   1_565  A
C1449      C1450   1.396       .  A
C1449      H1458   1.077       .  S
C1450      C1451   1.400   1_545  A
C1450      H1459   1.083       .  S
C1451      C1452   1.402       .  A
C1452      H1460   1.084       .  S
C1461      C1462   1.400       .  A
C1461      C1466   1.403       .  A
C1462      C1463   1.395       .  A
C1462      H1475   1.083       .  S
C1463      C1464   1.415       .  A
C1463      H1476   1.077       .  S
C1464      C1470   1.429       .  A
C1464      C1465   1.422       .  A
C1465      C1467   1.400       .  A
C1465      C1466   1.406       .  A
C1466      H1477   1.084       .  S
C1467      C1468   1.391       .  A
C1467      H1478   1.084       .  S
C1468      C1469   1.400       .  A
C1468      H1479   1.084       .  S
C1469      C1470   1.423       .  A
C1469      C1474   1.407       .  A
C1470      C1471   1.413       .  A
C1471      C1472   1.394       .  A
C1471      H1480   1.077       .  S
C1472      C1473   1.401       .  A
C1472      H1481   1.083       .  S
C1473      C1474   1.402       .  A
C1474      H1482   1.084       .  S
C1483      C1484   1.400       .  A
C1483      C1488   1.402       .  A
C1484      C1485   1.393       .  A
C1484      H1497   1.083       .  S
C1485      C1486   1.414       .  A
C1485      H1498   1.077       .  S
C1486      C1492   1.429       .  A
C1486      C1487   1.423       .  A
C1487      C1489   1.400       .  A
C1487      C1488   1.407       .  A
C1488      H1499   1.084       .  S
C1489      C1490   1.391       .  A
C1489      H1500   1.084       .  S
C1490      C1491   1.400       .  A
C1490      H1501   1.084       .  S
C1491      C1492   1.422       .  A
C1491      C1496   1.406       .  A
C1492      C1493   1.414       .  A
C1493      C1494   1.394       .  A
C1493      H1502   1.077       .  S
C1494      C1495   1.400       .  A
C1494      H1503   1.083       .  S
C1495      C1496   1.403       .  A
C1496      H1504   1.084       .  S
C1505      C1506   1.400       .  A
C1505      C1510   1.402       .  A
C1506      C1507   1.395       .  A
C1506      H1519   1.083       .  S
C1507      C1508   1.415       .  A
C1507      H1520   1.077       .  S
C1508      C1514   1.429       .  A
C1508      C1509   1.422       .  A
C1509      C1511   1.400       .  A
C1509      C1510   1.405       .  A
C1510      H1521   1.084       .  S
C1511      C1512   1.390       .  A
C1511      H1522   1.084       .  S
C1512      C1513   1.399       .  A
C1512      H1523   1.084       .  S
C1513      C1514   1.423       .  A
C1513      C1518   1.405       .  A
C1514      C1515   1.414       .  A
C1515      C1516   1.395       .  A
C1515      H1524   1.077       .  S
C1516      C1517   1.400       .  A
C1516      H1525   1.083       .  S
C1517      C1518   1.402       .  A
C1518      H1526   1.084       .  S
C1527      C1528   1.401       .  A
C1527      C1532   1.402   1_545  A
C1528      C1529   1.399       .  A
C1528      H1541   1.083       .  S
C1529      C1530   1.416       .  A
C1529      H1542   1.077       .  S
C1530      C1536   1.432       .  A
C1530      C1531   1.422   1_545  A
C1531      C1533   1.399       .  A
C1531      C1532   1.403       .  A
C1532      H1543   1.084       .  S
C1533      C1534   1.388       .  A
C1533      H1544   1.084       .  S
C1534      C1535   1.399       .  A
C1534      H1545   1.084       .  S
C1535      C1536   1.423   1_565  A
C1535      C1540   1.404       .  A
C1536      C1537   1.415       .  A
C1537      C1538   1.398       .  A
C1537      H1546   1.077       .  S
C1538      C1539   1.402       .  A
C1538      H1547   1.083       .  S
C1539      C1540   1.401   1_545  A
C1540      H1548   1.084       .  S
C1549      C1550   1.401       .  A
C1549      C1554   1.401   1_565  A
C1550      C1551   1.397       .  A
C1550      H1563   1.083       .  S
C1551      C1552   1.415       .  A
C1551      H1564   1.077       .  S
C1552      C1558   1.431       .  A
C1552      C1553   1.423   1_565  A
C1553      C1555   1.399       .  A
C1553      C1554   1.405       .  A
C1554      H1565   1.084       .  S
C1555      C1556   1.389       .  A
C1555      H1566   1.084       .  S
C1556      C1557   1.399       .  A
C1556      H1567   1.084       .  S
C1557      C1558   1.422   1_545  A
C1557      C1562   1.404       .  A
C1558      C1559   1.416       .  A
C1559      C1560   1.398       .  A
C1559      H1568   1.077       .  S
C1560      C1561   1.400       .  A
C1560      H1569   1.083       .  S
C1561      C1562   1.402   1_565  A
C1562      H1570   1.084       .  S
C1571      C1572   1.400   1_565  A
C1571      C1576   1.403   1_655  A
C1572      C1573   1.394       .  A
C1572      H1585   1.083       .  S
C1573      C1574   1.414   1_545  A
C1573      H1586   1.077       .  S
C1574      C1580   1.430       .  A
C1574      C1575   1.422   1_655  A
C1575      C1577   1.400       .  A
C1575      C1576   1.407       .  A
C1576      H1587   1.084       .  S
C1577      C1578   1.391       .  A
C1577      H1588   1.084       .  S
C1578      C1579   1.400       .  A
C1578      H1589   1.084       .  S
C1579      C1580   1.422   1_455  A
C1579      C1584   1.407       .  A
C1580      C1581   1.414   1_565  A
C1581      C1582   1.395       .  A
C1581      H1590   1.077       .  S
C1582      C1583   1.400   1_545  A
C1582      H1591   1.083       .  S
C1583      C1584   1.403   1_655  A
C1584      H1592   1.084       .  S
C1593      C1594   1.399       .  A
C1593      C1598   1.401       .  A
C1594      C1595   1.395       .  A
C1594      H1607   1.083       .  S
C1595      C1596   1.414       .  A
C1595      H1608   1.078       .  S
C1596      C1602   1.427       .  A
C1596      C1597   1.422       .  A
C1597      C1599   1.400       .  A
C1597      C1598   1.404       .  A
C1598      H1609   1.085       .  S
C1599      C1600   1.390       .  A
C1599      H1610   1.084       .  S
C1600      C1601   1.399       .  A
C1600      H1611   1.084       .  S
C1601      C1602   1.423       .  A
C1601      C1606   1.404       .  A
C1602      C1603   1.415       .  A
C1603      C1604   1.395       .  A
C1603      H1612   1.078       .  S
C1604      C1605   1.396       .  A
C1604      H1613   1.084       .  S
C1605      C1606   1.398       .  A
C1606      H1614   1.085       .  S
C1615      C1616   1.400       .  A
C1615      C1620   1.403       .  A
C1616      C1617   1.395       .  A
C1616      H1629   1.083       .  S
C1617      C1618   1.415       .  A
C1617      H1630   1.077       .  S
C1618      C1624   1.430       .  A
C1618      C1619   1.422       .  A
C1619      C1621   1.400       .  A
C1619      C1620   1.406       .  A
C1620      H1631   1.084       .  S
C1621      C1622   1.390       .  A
C1621      H1632   1.084       .  S
C1622      C1623   1.400       .  A
C1622      H1633   1.084       .  S
C1623      C1624   1.423       .  A
C1623      C1628   1.406       .  A
C1624      C1625   1.414       .  A
C1625      C1626   1.395       .  A
C1625      H1634   1.077       .  S
C1626      C1627   1.401       .  A
C1626      H1635   1.083       .  S
C1627      C1628   1.402       .  A
C1628      H1636   1.084       .  S
C1637      C1638   1.400       .  A
C1637      C1642   1.402       .  A
C1638      C1639   1.394       .  A
C1638      H1651   1.083       .  S
C1639      C1640   1.414       .  A
C1639      H1652   1.077       .  S
C1640      C1646   1.429       .  A
C1640      C1641   1.422       .  A
C1641      C1643   1.399       .  A
C1641      C1642   1.405       .  A
C1642      H1653   1.084       .  S
C1643      C1644   1.390       .  A
C1643      H1654   1.084       .  S
C1644      C1645   1.400       .  A
C1644      H1655   1.084       .  S
C1645      C1646   1.422       .  A
C1645      C1650   1.404       .  A
C1646      C1647   1.415       .  A
C1647      C1648   1.395       .  A
C1647      H1656   1.077       .  S
C1648      C1649   1.400       .  A
C1648      H1657   1.083       .  S
C1649      C1650   1.402       .  A
C1650      H1658   1.084       .  S
C1659      C1660   1.399       .  A
C1659      C1664   1.402       .  A
C1660      C1661   1.395       .  A
C1660      H1673   1.083       .  S
C1661      C1662   1.415       .  A
C1661      H1674   1.077       .  S
C1662      C1668   1.428       .  A
C1662      C1663   1.422       .  A
C1663      C1665   1.400       .  A
C1663      C1664   1.404       .  A
C1664      H1675   1.084       .  S
C1665      C1666   1.390       .  A
C1665      H1676   1.084       .  S
C1666      C1667   1.399       .  A
C1666      H1677   1.084       .  S
C1667      C1668   1.423       .  A
C1667      C1672   1.405       .  A
C1668      C1669   1.414       .  A
C1669      C1670   1.393       .  A
C1669      H1678   1.077       .  S
C1670      C1671   1.400       .  A
C1670      H1679   1.083       .  S
C1671      C1672   1.402       .  A
C1672      H1680   1.084       .  S
C1681      C1682   1.399   1_545  A
C1681      C1686   1.399       .  A
C1682      C1683   1.396       .  A
C1682      H1695   1.083       .  S
C1683      C1684   1.415       .  A
C1683      H1696   1.078       .  S
C1684      C1690   1.427       .  A
C1684      C1685   1.422   1_565  A
C1685      C1687   1.399       .  A
C1685      C1686   1.403       .  A
C1686      H1697   1.085       .  S
C1687      C1688   1.389       .  A
C1687      H1698   1.084       .  S
C1688      C1689   1.399       .  A
C1688      H1699   1.084       .  S
C1689      C1690   1.422   1_545  A
C1689      C1694   1.403       .  A
C1690      C1691   1.415       .  A
C1691      C1692   1.396       .  A
C1691      H1700   1.078       .  S
C1692      C1693   1.398       .  A
C1692      H1701   1.084       .  S
C1693      C1694   1.398   1_565  A
C1694      H1702   1.085       .  S
C1703      C1704   1.400       .  A
C1703      C1708   1.402       .  A
C1704      C1705   1.396       .  A
C1704      H1717   1.083   1_545  S
C1705      C1706   1.416       .  A
C1705      H1718   1.077   1_545  S
C1706      C1712   1.430       .  A
C1706      C1707   1.422       .  A
C1707      C1709   1.399       .  A
C1707      C1708   1.404       .  A
C1708      H1719   1.084       .  S
C1709      C1710   1.390       .  A
C1709      H1720   1.084       .  S
C1710      C1711   1.399       .  A
C1710      H1721   1.084       .  S
C1711      C1712   1.423       .  A
C1711      C1716   1.406       .  A
C1712      C1713   1.414       .  A
C1713      C1714   1.395       .  A
C1713      H1722   1.077   1_545  S
C1714      C1715   1.401       .  A
C1714      H1723   1.083   1_545  S
C1715      C1716   1.401       .  A
C1716      H1724   1.084       .  S
C1725      C1726   1.399       .  A
C1725      C1730   1.400   1_655  A
C1726      C1727   1.394       .  A
C1726      H1739   1.084       .  S
C1727      C1728   1.413       .  A
C1727      H1740   1.078       .  S
C1728      C1734   1.428       .  A
C1728      C1729   1.423   1_655  A
C1729      C1731   1.400       .  A
C1729      C1730   1.406       .  A
C1730      H1741   1.085       .  S
C1731      C1732   1.391       .  A
C1731      H1742   1.084       .  S
C1732      C1733   1.400       .  A
C1732      H1743   1.084       .  S
C1733      C1734   1.422   1_455  A
C1733      C1738   1.405       .  A
C1734      C1735   1.416       .  A
C1735      C1736   1.396       .  A
C1735      H1744   1.078       .  S
C1736      C1737   1.397       .  A
C1736      H1745   1.084       .  S
C1737      C1738   1.400   1_655  A
C1738      H1746   1.085       .  S
C1747      C1748   1.401       .  A
C1747      C1752   1.401   1_655  A
C1748      C1749   1.396       .  A
C1748      H1761   1.083       .  S
C1749      C1750   1.414       .  A
C1749      H1762   1.077       .  S
C1750      C1756   1.430       .  A
C1750      C1751   1.423   1_655  A
C1751      C1753   1.399       .  A
C1751      C1752   1.405       .  A
C1752      H1763   1.084       .  S
C1753      C1754   1.389       .  A
C1753      H1764   1.084       .  S
C1754      C1755   1.399       .  A
C1754      H1765   1.084       .  S
C1755      C1756   1.422   1_455  A
C1755      C1760   1.403       .  A
C1756      C1757   1.415       .  A
C1757      C1758   1.397       .  A
C1757      H1766   1.077       .  S
C1758      C1759   1.401       .  A
C1758      H1767   1.083       .  S
C1759      C1760   1.401   1_655  A
C1760      H1768   1.084       .  S
C1769      C1770   1.401   1_655  A
C1769      C1774   1.401       .  A
C1770      C1771   1.393       .  A
C1770      H1783   1.083       .  S
C1771      C1772   1.413       .  A
C1771      H1784   1.077       .  S
C1772      C1778   1.429       .  A
C1772      C1773   1.423   1_455  A
C1773      C1775   1.399       .  A
C1773      C1774   1.407       .  A
C1774      H1785   1.084       .  S
C1775      C1776   1.390       .  A
C1775      H1786   1.084       .  S
C1776      C1777   1.400       .  A
C1776      H1787   1.084       .  S
C1777      C1778   1.421   1_655  A
C1777      C1782   1.404       .  A
C1778      C1779   1.416       .  A
C1779      C1780   1.395       .  A
C1779      H1788   1.077       .  S
C1780      C1781   1.399       .  A
C1780      H1789   1.083       .  S
C1781      C1782   1.403   1_455  A
C1782      H1790   1.084       .  S
C1791      C1792   1.401   1_655  A
C1791      C1796   1.401       .  A
C1792      C1793   1.392       .  A
C1792      H1805   1.083       .  S
C1793      C1794   1.412   1_455  A
C1793      H1806   1.077       .  S
C1794      C1800   1.428   1_655  A
C1794      C1795   1.424       .  A
C1795      C1797   1.399       .  A
C1795      C1796   1.407       .  A
C1796      H1807   1.084       .  S
C1797      C1798   1.391       .  A
C1797      H1808   1.084       .  S
C1798      C1799   1.400       .  A
C1798      H1809   1.084       .  S
C1799      C1800   1.421   1_655  A
C1799      C1804   1.405       .  A
C1800      C1801   1.415       .  A
C1801      C1802   1.394       .  A
C1801      H1810   1.077       .  S
C1802      C1803   1.399       .  A
C1802      H1811   1.083       .  S
C1803      C1804   1.402   1_455  A
C1804      H1812   1.084       .  S
C1813      C1814   1.399   1_655  A
C1813      C1818   1.398   1_545  A
C1814      C1815   1.395       .  A
C1814      H1827   1.084       .  S
C1815      C1816   1.415       .  A
C1815      H1828   1.078       .  S
C1816      C1822   1.427       .  A
C1816      C1817   1.423   1_445  A
C1817      C1819   1.399       .  A
C1817      C1818   1.403       .  A
C1818      H1829   1.085       .  S
C1819      C1820   1.389       .  A
C1819      H1830   1.084       .  S
C1820      C1821   1.399       .  A
C1820      H1831   1.084       .  S
C1821      C1822   1.422   1_665  A
C1821      C1826   1.402       .  A
C1822      C1823   1.415       .  A
C1823      C1824   1.396       .  A
C1823      H1832   1.078       .  S
C1824      C1825   1.398       .  A
C1824      H1833   1.084       .  S
C1825      C1826   1.398   1_445  A
C1826      H1834   1.085       .  S
C1835      C1836   1.399   1_465  A
C1835      C1840   1.403       .  A
C1836      C1837   1.393       .  A
C1836      H1849   1.083       .  S
C1837      C1838   1.414   1_545  A
C1837      H1850   1.076       .  S
C1838      C1844   1.427       .  A
C1838      C1839   1.422   1_655  A
C1839      C1841   1.400       .  A
C1839      C1840   1.405       .  A
C1840      H1851   1.084       .  S
C1841      C1842   1.391       .  A
C1841      H1852   1.084       .  S
C1842      C1843   1.400       .  A
C1842      H1853   1.084       .  S
C1843      C1844   1.423   1_455  A
C1843      C1848   1.406       .  A
C1844      C1845   1.413       .  A
C1845      C1846   1.392       .  A
C1845      H1854   1.076   1_565  S
C1846      C1847   1.400   1_655  A
C1846      H1855   1.083   1_565  S
C1847      C1848   1.402       .  A
C1848      H1856   1.084       .  S
