geometry optimzed in LAMMPS
_audit_creation_date              2020-11-30 
_audit_creation_method            'lammps2cif' 
_symmetry_space_group_name_H-M    'P1' 
_symmetry_Int_Tables_number       1 
_symmetry_cell_setting            triclinic 
loop_ 
_symmetry_equiv_pos_as_xyz 
  x,y,z 
_cell_length_a                    25.02928568 
_cell_length_b                    25.214923518159445 
_cell_length_c                    40.78154164552676 
_cell_angle_alpha                 89.18666227476047 
_cell_angle_beta                  89.1727934383676 
_cell_angle_gamma                 93.58086069736046 
loop_ 
_atom_site_label 
_atom_site_type_symbol 
_atom_site_fract_x 
_atom_site_fract_y 
_atom_site_fract_z 
_atom_site_charge 
C1          C  0.27006372  0.99340581  0.22450922     0.80100
N2          N  0.32439644  0.99401240  0.22188569    -0.78200
C3          C  0.35519736  0.99825176  0.24914673     0.82600
N4          N  0.33116181  0.00235255  0.27926692    -0.78100
C5          C  0.27689099  0.00362930  0.28183998     0.82700
N6          N  0.24714436  0.99895188  0.25443053    -0.79900
C7          C  0.49349811  0.00481003  0.21347332     0.80100
N8          N  0.43907780  0.00397296  0.21593344    -0.78200
C9          C  0.41428676  0.99830571  0.24599879     0.82600
N10         N  0.44425570  0.99150919  0.27320961    -0.78100
C11         C  0.49849496  0.99109316  0.27070380     0.82700
N12         N  0.52244239  0.99793555  0.24080100    -0.79900
C13         C  0.81675779  0.32694810  0.22294550     0.80100
N14         N  0.82536557  0.38077131  0.21976574    -0.78200
C15         C  0.83158984  0.41132214  0.24712257     0.82600
N16         N  0.83008052  0.38752674  0.27738960    -0.78100
C17         C  0.82055147  0.33404704  0.28034220     0.82700
N18         N  0.81427106  0.30452800  0.25320081    -0.79900
C19         C  0.84501033  0.54833398  0.21175998     0.80100
N20         N  0.83752717  0.49452409  0.21437450    -0.78200
C21         C  0.84038375  0.46983768  0.24424295     0.82600
N22         N  0.85054511  0.49951417  0.27157488    -0.78100
C23         C  0.85829132  0.55340131  0.26898590     0.82700
N24         N  0.85533142  0.57687757  0.23907477    -0.79900
O25         O  0.89693871  0.99174033  0.07446665    -0.80200
O26         O  0.80701725  0.94700484  0.44588755    -0.80300
O27         O  0.86466394  0.04852869  0.47164579    -0.80300
O28         O  0.77980539  0.94950412  0.01964605    -0.80200
O29         O  0.89839861  0.00525251  0.43175574    -0.80300
O30         O  0.81948111  0.91635133  0.06262676    -0.80300
O31         O  0.75842435  0.88053130  0.46913072    -0.80200
O32         O  0.86533171  0.04493015  0.03745398    -0.80300
C33         C  0.87266176  0.03299533  0.06710337     1.09400
C34         C  0.76285684  0.91739481  0.44768195     1.09300
C35         C  0.87691086  0.04616144  0.44179174     1.09500
C36         C  0.78025589  0.93932285  0.05021813     1.09300
O37         O  0.89969369  0.85047234  0.03202328    -0.80200
O38         O  0.96560148  0.93058557  0.45970630    -0.80300
O39         O  0.97617605  0.01782537  0.03653638    -0.80300
O40         O  0.86059871  0.85336627  0.45917259    -0.80200
O41         O  0.88774219  0.90056696  0.41528704    -0.80300
O42         O  0.97595026  0.93111299  0.04171136    -0.80300
O43         O  0.81545922  0.84406638  0.02111154    -0.80200
O44         O  0.97655860  0.01633591  0.46968730    -0.80300
Co45       Co  0.89817886  0.92277386  0.04967545     1.51500
Co46       Co  0.88760137  0.93545340  0.45614344     1.51700
Co47       Co  0.91788680  0.02796326  0.50361226     1.51600
Co48       Co  0.82211185  0.90679764  0.48981348     1.51500
O49         O  0.88644064  0.95215618  0.50399937    -1.42200
C50         C  0.85576169  0.82330192  0.03303469     1.09400
C51         C  0.99432959  0.97384275  0.45789965     1.09500
C52         C  0.99911535  0.97655548  0.04558029     1.09400
C53         C  0.87465496  0.85567682  0.42838668     1.09400
C54         C  0.86984544  0.58844898  0.29753957    -0.12100
C55         C  0.84337279  0.58205518  0.32834109     0.03400
C56         C  0.84702498  0.62359362  0.35113278    -0.12600
C57         C  0.87766507  0.67123824  0.34410266     0.18300
C58         C  0.90893788  0.67469437  0.31503950    -0.09600
C59         C  0.90407434  0.63421597  0.29201326    -0.02600
H60         H  0.82414590  0.61951442  0.37387802     0.04800
C61         C  0.87498085  0.71765810  0.36632171     0.20200
H62         H  0.92645348  0.63922485  0.26911239     0.10000
C63         C  0.89009957  0.71338897  0.39927934    -0.16000
C64         C  0.88949973  0.75720329  0.42027425     0.03000
C65         C  0.87503934  0.80702357  0.40809765    -0.11300
C66         C  0.85860533  0.81065368  0.37538490    -0.01300
C67         C  0.85694361  0.76648514  0.35493578    -0.06500
H68         H  0.90286032  0.67586248  0.40866835     0.06000
H69         H  0.84518256  0.84786251  0.36588822     0.09400
Br70       Br  0.95919588  0.73382055  0.30547293    -0.06200
Br71       Br  0.79895700  0.51966335  0.33988342    -0.03100
Br72       Br  0.91059854  0.74684501  0.46481452    -0.00300
Br73       Br  0.82573451  0.77416787  0.31247134    -0.04700
C74         C  0.85148404  0.77177160  0.05174352    -0.12100
C75         C  0.80203571  0.74305300  0.05885362     0.03400
C76         C  0.80015506  0.69966958  0.08082801    -0.12600
C77         C  0.84623239  0.68465598  0.09676630     0.18300
C78         C  0.89572098  0.71158640  0.08885310    -0.09600
C79         C  0.89809834  0.75401061  0.06628469    -0.02600
H80         H  0.76177435  0.67929233  0.08702768     0.04800
C81         C  0.84085401  0.64636014  0.12473782     0.20200
H82         H  0.93662699  0.77505470  0.06153823     0.10000
C83         C  0.86173618  0.59601333  0.12262181    -0.16000
C84         C  0.86116688  0.56158134  0.15009310     0.03000
C85         C  0.83972691  0.57779997  0.18031833    -0.11300
C86         C  0.81690218  0.62726746  0.18170123    -0.01300
C87         C  0.81735889  0.66130528  0.15446428    -0.06500
H88         H  0.87986312  0.58416282  0.09982452     0.06000
H89         H  0.79985660  0.64041213  0.20452635     0.09400
Br90       Br  0.96029912  0.69561399  0.11078866    -0.06200
Br91       Br  0.73461607  0.76245335  0.04195720    -0.03100
Br92       Br  0.89395119  0.49535351  0.14540295    -0.00300
Br93       Br  0.78873409  0.72956424  0.16001355    -0.04700
C94         C  0.82222745  0.30575700  0.31194672    -0.12100
C95         C  0.78236610  0.26563821  0.32011066     0.03400
C96         C  0.79170965  0.22808382  0.34438879    -0.12600
C97         C  0.84030740  0.22982323  0.36107806     0.18300
C98         C  0.87895727  0.27190266  0.35436860    -0.09600
C99         C  0.86950465  0.30972921  0.33000352    -0.02600
H100        H  0.76178586  0.19581915  0.34921060     0.04800
C101        C  0.85115031  0.18454583  0.38288698     0.20200
H102        H  0.90077308  0.33996503  0.32354265     0.10000
C103        C  0.89296621  0.15233491  0.37468544    -0.16000
C104        C  0.90197288  0.10669554  0.39317174     0.03000
C105        C  0.86776284  0.09190645  0.42002748    -0.11300
C106        C  0.82594638  0.12432353  0.42814938    -0.01300
C107        C  0.81754283  0.17026884  0.40995441    -0.06500
H108        H  0.91870057  0.16271897  0.35368958     0.06000
H109        H  0.79973807  0.11407711  0.44895264     0.09400
Br110      Br  0.94600781  0.27806194  0.37666110    -0.06200
Br111      Br  0.71548958  0.25873376  0.29758454    -0.03100
Br112      Br  0.96368792  0.06886049  0.38170805    -0.00300
Br113      Br  0.76065984  0.21299699  0.42371606    -0.04700
C114        C  0.81354586  0.29038954  0.19481470    -0.12100
C115        C  0.85335342  0.29158883  0.16993446     0.03400
C116        C  0.85705287  0.24788426  0.14928267    -0.12600
C117        C  0.82184293  0.20255775  0.15311905     0.18300
C118        C  0.78085546  0.20208857  0.17701984    -0.09600
C119        C  0.77669174  0.24586942  0.19735920    -0.02600
H120        H  0.88889474  0.24832386  0.13102596     0.04800
C121        C  0.83060104  0.15514928  0.13323577     0.20200
H122        H  0.74645588  0.24374243  0.21664619     0.10000
C123        C  0.87279490  0.12332213  0.14104338    -0.16000
C124        C  0.88518327  0.08067055  0.12121878     0.03000
C125        C  0.85552075  0.07009361  0.09253000    -0.11300
C126        C  0.81146750  0.10041428  0.08589927    -0.01300
C127        C  0.79879899  0.14242663  0.10600185    -0.06500
H128        H  0.89695842  0.13250183  0.16229169     0.06000
H129        H  0.78763969  0.09242759  0.06435022     0.09400
Br130      Br  0.73285675  0.14063020  0.18472847    -0.06200
Br131      Br  0.90771540  0.34835843  0.16559834    -0.03100
Br132      Br  0.94531089  0.04145349  0.13359216    -0.00300
Br133      Br  0.73946987  0.18308071  0.09434150    -0.04700
C134        C  0.71850797  0.92812122  0.42489134    -0.12100
C135        C  0.67141682  0.89415948  0.42214117     0.03400
C136        C  0.63342958  0.90491807  0.39835978    -0.12600
C137        C  0.64118093  0.94883023  0.37703333     0.18300
C138        C  0.68708437  0.98328318  0.38008736    -0.09600
C139        C  0.72502954  0.97292055  0.40377512    -0.02600
H140        H  0.59816885  0.87820535  0.39598429     0.04800
C141        C  0.60259894  0.95674814  0.35055075     0.20200
H142        H  0.76026985  0.99986772  0.40520931     0.10000
C143        C  0.55624985  0.98368841  0.35686752    -0.16000
C144        C  0.52085037  0.99460687  0.33158701     0.03000
C145        C  0.53202126  0.97859028  0.29923931    -0.11300
C146        C  0.57800610  0.95044535  0.29341054    -0.01300
C147        C  0.61284937  0.93928075  0.31865627    -0.06500
H148        H  0.54821402  0.99724011  0.38142605     0.06000
H149        H  0.58706194  0.93686987  0.26899548     0.09400
Br150      Br  0.70012653  0.04451104  0.35190649    -0.06200
Br151      Br  0.65634729  0.83140528  0.44877039    -0.03100
Br152      Br  0.46034265  0.03436384  0.34260087    -0.00300
Br153      Br  0.67419674  0.90017957  0.30842367    -0.04700
C154        C  0.52229897  0.00678129  0.18152991    -0.12100
C155        C  0.56378652  0.04611606  0.17479586     0.03400
C156        C  0.60094783  0.03914216  0.14936536    -0.12600
C157        C  0.59828802  0.99249882  0.13093683     0.18300
C158        C  0.55531093  0.95447063  0.13659796    -0.09600
C159        C  0.51727919  0.96217396  0.16139112    -0.02600
H160        H  0.63391953  0.06838784  0.14544125     0.04800
C161        C  0.64468014  0.98023392  0.10987943     0.20200
H162        H  0.48652782  0.93114501  0.16673838     0.10000
C163        C  0.67959270  0.94321917  0.12153075    -0.18300
C164        C  0.72344783  0.92889845  0.10269912     0.03000
C165        C  0.73395606  0.95274285  0.07137187    -0.11300
C166        C  0.69882423  0.99025877  0.05988955    -0.01300
C167        C  0.65455735  0.00394439  0.07878655    -0.06500
H168        H  0.67205872  0.92459763  0.14540136     0.06000
H169        H  0.70567483  0.00911729  0.03604330     0.09400
Br170      Br  0.54985186  0.88909331  0.11304679    -0.06200
Br171      Br  0.57353244  0.10812690  0.20131529    -0.03100
Br172      Br  0.76445171  0.87406943  0.12105851    -0.00300
Br173      Br  0.60763938  0.05365672  0.06075922    -0.04700
C174        C  0.04607492  0.97713435  0.43864090    -0.12100
C175        C  0.06265807  0.93525449  0.41866472     0.03400
C176        C  0.10744539  0.94345194  0.39769733    -0.12600
C177        C  0.13708048  0.99249963  0.39579117     0.18300
C178        C  0.12196110  0.03368698  0.41631271    -0.09600
C179        C  0.07729676  0.02574043  0.43746225    -0.02600
H180        H  0.11805391  0.91167523  0.38169616     0.04800
C181        C  0.17944498  0.00107635  0.36972757     0.20200
H182        H  0.06610853  0.05859357  0.45238376     0.10000
C183        C  0.17220859  0.03842865  0.34460419    -0.16000
C184        C  0.20646280  0.04261898  0.31713384     0.03000
C185        C  0.24864234  0.00829496  0.31385797    -0.11300
C186        C  0.25811170  0.97316136  0.33986540    -0.01300
C187        C  0.22393496  0.96932595  0.36761696    -0.06500
H188        H  0.13847740  0.06336469  0.34579936     0.06000
H189        H  0.29049924  0.94669217  0.33788558     0.09400
Br190      Br  0.16078833  0.10178336  0.41616542    -0.06200
Br191      Br  0.02536540  0.86640343  0.41657696    -0.03100
Br192      Br  0.19381866  0.09623186  0.28471950    -0.00300
Br193      Br  0.23906118  0.91964971  0.40177772    -0.04700
C194        C  0.23576175  0.98804301  0.19510978    -0.12100
C195        C  0.18358445  0.96267361  0.19666368     0.03400
C196        C  0.15192833  0.96051789  0.16869578    -0.12600
C197        C  0.17051013  0.98352990  0.13886712     0.18300
C198        C  0.22214442  0.00914401  0.13719991    -0.09600
C199        C  0.25454862  0.01051058  0.16500488    -0.02600
H200        H  0.11205127  0.94133103  0.17033150     0.04800
C201        C  0.13367908  0.98247660  0.11064914     0.20200
H202        H  0.29398777  0.03058188  0.16328687     0.10000
C203        C  0.11327763  0.02998601  0.09967384    -0.16000
C204        C  0.07205735  0.02991338  0.07675701     0.03000
C205        C  0.04973176  0.98102338  0.06458631    -0.11300
C206        C  0.07291923  0.93383893  0.07423804    -0.01300
C207        C  0.11413699  0.93423723  0.09703940    -0.06500
H208        H  0.12800134  0.06726675  0.11005144     0.06000
H209        H  0.05758501  0.89590641  0.06506663     0.09400
Br210      Br  0.24997582  0.04311675  0.09763209    -0.06200
Br211      Br  0.15257867  0.92870861  0.23560234    -0.03100
Br212      Br  0.04739185  0.09827841  0.06513522    -0.00300
Br213      Br  0.14136915  0.86749814  0.10951256    -0.04700
C214        C  0.27006354  0.99340070  0.72450893     0.80100
N215        N  0.32439621  0.99400776  0.72188527    -0.78200
C216        C  0.35519737  0.99825020  0.74914603     0.82600
N217        N  0.33116210  0.00235365  0.77926611    -0.78100
C218        C  0.27689123  0.00363013  0.78183921     0.82700
N219        N  0.24714437  0.99894960  0.75443001    -0.79900
C220        C  0.49349771  0.00480856  0.71347214     0.80100
N221        N  0.43907745  0.00397177  0.71593244    -0.78200
C222        C  0.41428667  0.99830414  0.74599785     0.82600
N223        N  0.44425575  0.99150701  0.77320848    -0.78100
C224        C  0.49849495  0.99109067  0.77070258     0.82700
N225        N  0.52244225  0.99793344  0.74079970    -0.79900
C226        C  0.81675437  0.32694946  0.72294377     0.80100
N227        N  0.82536021  0.38077303  0.71976501    -0.78200
C228        C  0.83158401  0.41132259  0.74712245     0.82600
N229        N  0.83007634  0.38752569  0.77738894    -0.78100
C230        C  0.82054949  0.33404574  0.78034057     0.82700
N231        N  0.81426932  0.30452775  0.75319868    -0.79900
C232        C  0.84500228  0.54833597  0.71176264     0.80100
N233        N  0.83751936  0.49452606  0.71437623    -0.78200
C234        C  0.84037630  0.46983832  0.74424418     0.82600
N235        N  0.85053795  0.49951351  0.77157667    -0.78100
C236        C  0.85828387  0.55340080  0.76898861     0.82700
N237        N  0.85532338  0.57687824  0.73907789    -0.79900
O238        O  0.89693955  0.99173877  0.57446697    -0.80200
O239        O  0.80701614  0.94700519  0.94588738    -0.80300
O240        O  0.86466134  0.04852958  0.97164565    -0.80300
O241        O  0.77980587  0.94950311  0.51964590    -0.80200
O242        O  0.89839667  0.00525416  0.93175546    -0.80300
O243        O  0.81948111  0.91635037  0.56262677    -0.80300
O244        O  0.75842413  0.88053173  0.96913125    -0.80200
O245        O  0.86533366  0.04492888  0.53745402    -0.80300
C246        C  0.87266330  0.03299426  0.56710346     1.09400
C247        C  0.76285613  0.91739452  0.94768198     1.09300
C248        C  0.87690878  0.04616289  0.94179165     1.09500
C249        C  0.78025649  0.93932264  0.55021813     1.09300
O250        O  0.89969232  0.85047010  0.53202344    -0.80200
O251        O  0.96560122  0.93058890  0.95970566    -0.80300
O252        O  0.97617745  0.01782155  0.53653685    -0.80300
O253        O  0.86059877  0.85336801  0.95917325    -0.80200
O254        O  0.88774137  0.90056773  0.91528707    -0.80300
O255        O  0.97594952  0.93110905  0.54171082    -0.80300
O256        O  0.81545811  0.84406533  0.52111110    -0.80200
O257        O  0.97655686  0.01633931  0.96968682    -0.80300
Co258      Co  0.89817860  0.92277176  0.54967553     1.51500
Co259      Co  0.88760073  0.93545506  0.95614322     1.51700
Co260      Co  0.91788494  0.02796558  0.00361198     1.51600
Co261      Co  0.82211161  0.90679896  0.98981380     1.51500
O262        O  0.88644031  0.95215802  0.00399923    -1.42200
C263        C  0.85575990  0.82330045  0.53303469     1.09400
C264        C  0.99432856  0.97384661  0.95789894     1.09500
C265        C  0.99911580  0.97655073  0.54558013     1.09400
C266        C  0.87465402  0.85567795  0.92838724     1.09400
C267        C  0.86983965  0.58844777  0.79754250    -0.12100
C268        C  0.84337336  0.58205043  0.82834585     0.03400
C269        C  0.84702410  0.62358932  0.85113738    -0.12600
C270        C  0.87765801  0.67123707  0.84410549     0.18300
C271        C  0.90892726  0.67469584  0.81504102    -0.09600
C272        C  0.90406393  0.63421767  0.79201476    -0.02600
H273        H  0.82414934  0.61950750  0.87388404     0.04800
C274        C  0.87497284  0.71765679  0.86632451     0.20200
H275        H  0.92643972  0.63922890  0.76911289     0.10000
C276        C  0.89009519  0.71338912  0.89928150    -0.16000
C277        C  0.88949759  0.75720433  0.92027573     0.03000
C278        C  0.87503629  0.80702411  0.90809887    -0.11300
C279        C  0.85859786  0.81065265  0.87538701    -0.01300
C280        C  0.85693340  0.76648308  0.85493875    -0.06500
H281        H  0.90285757  0.67586310  0.90867049     0.06000
H282        H  0.84517370  0.84786110  0.86589044     0.09400
Br283      Br  0.95918103  0.73382491  0.80547291    -0.06200
Br284      Br  0.79897057  0.51965172  0.83989201    -0.03100
Br285      Br  0.91060076  0.74684798  0.96481534    -0.00300
Br286      Br  0.82571816  0.77416354  0.81247590    -0.04700
C287        C  0.85148090  0.77177059  0.55174382    -0.12100
C288        C  0.80203088  0.74305839  0.55885890     0.03400
C289        C  0.80015023  0.69967589  0.58083384    -0.12600
C290        C  0.84622922  0.68465744  0.59676823     0.18300
C291        C  0.89571922  0.71158106  0.58884989    -0.09600
C292        C  0.89809633  0.75400412  0.56628065    -0.02600
H293        H  0.76176859  0.67930367  0.58703736     0.04800
C294        C  0.84085210  0.64636350  0.62474073     0.20200
H295        H  0.93662654  0.77504337  0.56153007     0.10000
C296        C  0.86172989  0.59601476  0.62262450    -0.16000
C297        C  0.86115904  0.56158287  0.65009583     0.03000
C298        C  0.83972119  0.57780319  0.68032124    -0.11300
C299        C  0.81690134  0.62727310  0.68170455    -0.01300
C300        C  0.81736027  0.66131116  0.65446767    -0.06500
H301        H  0.87985427  0.58416237  0.59982689     0.06000
H302        H  0.79985782  0.64041935  0.70452985     0.09400
Br303      Br  0.96030059  0.69560127  0.61077937    -0.06200
Br304      Br  0.73460930  0.76246772  0.54196992    -0.03100
Br305      Br  0.89393849  0.49535251  0.64540522    -0.00300
Br306      Br  0.78874301  0.72957350  0.66001773    -0.04700
C307        C  0.82222695  0.30575507  0.81194470    -0.12100
C308        C  0.78236580  0.26563659  0.82010933     0.03400
C309        C  0.79170937  0.22808374  0.84438835    -0.12600
C310        C  0.84030721  0.22982429  0.86107761     0.18300
C311        C  0.87895729  0.27190307  0.85436701    -0.09600
C312        C  0.86950446  0.30972825  0.83000118    -0.02600
H313        H  0.76178577  0.19581945  0.84921083     0.04800
C314        C  0.85115027  0.18454790  0.88288721     0.20200
H315        H  0.90077261  0.33996379  0.82353971     0.10000
C316        C  0.89296669  0.15233733  0.87468630    -0.16000
C317        C  0.90197304  0.10669816  0.89317274     0.03000
C318        C  0.86776170  0.09190845  0.92002775    -0.11300
C319        C  0.82594496  0.12432542  0.92814927    -0.01300
C320        C  0.81754208  0.17027093  0.90995435    -0.06500
H321        H  0.91870175  0.16272147  0.85369070     0.06000
H322        H  0.79973593  0.11407871  0.94895216     0.09400
Br323      Br  0.94600840  0.27806338  0.87665889    -0.06200
Br324      Br  0.71548934  0.25873070  0.79758324    -0.03100
Br325      Br  0.96368955  0.06886445  0.88171037    -0.00300
Br326      Br  0.76065902  0.21299932  0.92371560    -0.04700
C327        C  0.81354275  0.29039230  0.69481221    -0.12100
C328        C  0.85335255  0.29159063  0.66993338     0.03400
C329        C  0.85705269  0.24788608  0.64928156    -0.12600
C330        C  0.82184106  0.20256041  0.65311641     0.18300
C331        C  0.78085116  0.20209255  0.67701572    -0.09600
C332        C  0.77668694  0.24587341  0.69735514    -0.02600
H333        H  0.88889649  0.24832492  0.63102614     0.04800
C334        C  0.83060069  0.15515109  0.63323381     0.20200
H335        H  0.74644958  0.24374709  0.71664117     0.10000
C336        C  0.87279847  0.12332807  0.64104041    -0.16000
C337        C  0.88518784  0.08067573  0.62121655     0.03000
C338        C  0.85552221  0.07009335  0.59252972    -0.11300
C339        C  0.81146582  0.10041015  0.58589985    -0.01300
C340        C  0.79879653  0.14242357  0.60600147    -0.06500
H341        H  0.89696395  0.13251154  0.66228705     0.06000
H342        H  0.78763623  0.09241975  0.56435201     0.09400
Br343      Br  0.73285017  0.14063551  0.68472318    -0.06200
Br344      Br  0.90771653  0.34835877  0.66559970    -0.03100
Br345      Br  0.94532140  0.04146559  0.63358754    -0.00300
Br346      Br  0.73946396  0.18307294  0.59434116    -0.04700
C347        C  0.71850686  0.92811956  0.92489128    -0.12100
C348        C  0.67142048  0.89415206  0.92213749     0.03400
C349        C  0.63343270  0.90491015  0.89835631    -0.12600
C350        C  0.64117897  0.94882732  0.87703339     0.18300
C351        C  0.68707788  0.98328544  0.88009074    -0.09600
C352        C  0.72502347  0.97292348  0.90377848    -0.02600
H353        H  0.59817584  0.87819308  0.89597801     0.04800
C354        C  0.60259739  0.95674495  0.85055045     0.20200
H355        H  0.76026015  0.99987478  0.90521536     0.10000
C356        C  0.55624704  0.98368329  0.85686706    -0.16000
C357        C  0.52084813  0.99460188  0.83158625     0.03000
C358        C  0.53202108  0.97858778  0.79923826    -0.11300
C359        C  0.57800728  0.95044481  0.79340960    -0.01300
C360        C  0.61284978  0.93927978  0.81865571    -0.06500
H361        H  0.54820962  0.99723328  0.88142583     0.06000
H362        H  0.58706473  0.93687110  0.76899439     0.09400
Br363      Br  0.70011366  0.04451918  0.85191402    -0.06200
Br364      Br  0.65635971  0.83138954  0.94876054    -0.03100
Br365      Br  0.46033798  0.03435531  0.84260042    -0.00300
Br366      Br  0.67419911  0.90018136  0.80842333    -0.04700
C367        C  0.52229817  0.00678085  0.68152857    -0.12100
C368        C  0.56378278  0.04611833  0.67479380     0.03400
C369        C  0.60094517  0.03914580  0.64936364    -0.12600
C370        C  0.59828860  0.99250164  0.63093586     0.18300
C371        C  0.55531353  0.95447131  0.63659712    -0.09600
C372        C  0.51728130  0.96217271  0.66139031    -0.02600
H373        H  0.63391498  0.06839337  0.64543917     0.04800
C374        C  0.64468211  0.98023801  0.60987934     0.20200
H375        H  0.48653191  0.93114208  0.66673790     0.10000
C376        C  0.67959801  0.94322820  0.62153281    -0.18300
C377        C  0.72345294  0.92890631  0.60270147     0.03000
C378        C  0.73395750  0.95274459  0.57137208    -0.11300
C379        C  0.69882269  0.99025626  0.55988784    -0.01300
C380        C  0.65455599  0.00394288  0.57878463    -0.06500
H381        H  0.67206641  0.92461083  0.64540496     0.06000
H382        H  0.70567048  0.00911038  0.53604001     0.09400
Br383      Br  0.54985821  0.88909384  0.61304598    -0.06200
Br384      Br  0.57352271  0.10813163  0.70131157    -0.03100
Br385      Br  0.76446156  0.87408415  0.62106475    -0.00300
Br386      Br  0.60763344  0.05364832  0.56075456    -0.04700
C387        C  0.04607371  0.97713934  0.93863981    -0.12100
C388        C  0.06265913  0.93525862  0.91866512     0.03400
C389        C  0.10744612  0.94345651  0.89769746    -0.12600
C390        C  0.13707874  0.99250547  0.89578949     0.18300
C391        C  0.12195688  0.03369395  0.91630940    -0.09600
C392        C  0.07729294  0.02574694  0.93745925    -0.02600
H393        H  0.11805649  0.91167869  0.88169750     0.04800
C394        C  0.17944374  0.00108164  0.86972603     0.20200
H395        H  0.06610285  0.05860101  0.95237952     0.10000
C396        C  0.17220707  0.03843195  0.84460153    -0.16000
C397        C  0.20646217  0.04262150  0.81713156     0.03000
C398        C  0.24864259  0.00829821  0.81385701    -0.11300
C399        C  0.25811234  0.97316689  0.83986554    -0.01300
C400        C  0.22393503  0.96933269  0.86761688    -0.06500
H401        H  0.13847499  0.06336716  0.84579557     0.06000
H402        H  0.29050061  0.94669852  0.83788682     0.09400
Br403      Br  0.16078023  0.10179245  0.91615955    -0.06200
Br404      Br  0.02537031  0.86640535  0.91658013    -0.03100
Br405      Br  0.19381831  0.09623242  0.78471590    -0.00300
Br406      Br  0.23906261  0.91966022  0.90177946    -0.04700
C407        C  0.23576151  0.98803484  0.69510977    -0.12100
C408        C  0.18358404  0.96266595  0.69666464     0.03400
C409        C  0.15192726  0.96050905  0.66869706    -0.12600
C410        C  0.17050897  0.98351864  0.63886771     0.18300
C411        C  0.22214410  0.00913066  0.63719930    -0.09600
C412        C  0.25454857  0.01049912  0.66500406    -0.02600
H413        H  0.11204958  0.94132319  0.67033357     0.04800
C414        C  0.13367729  0.98246585  0.61065015     0.20200
H415        H  0.29398816  0.03056937  0.66328520     0.10000
C416        C  0.11328025  0.02997636  0.59967311    -0.16000
C417        C  0.07206137  0.02990552  0.57675548     0.03000
C418        C  0.04973201  0.98101615  0.56458625    -0.11300
C419        C  0.07291504  0.93383018  0.57423975    -0.01300
C420        C  0.11413189  0.93422676  0.59704160    -0.06500
H421        H  0.12800706  0.06725727  0.61004965     0.06000
H422        H  0.05757806  0.89589791  0.56506931     0.09400
Br423      Br  0.24997647  0.04309768  0.59762994    -0.06200
Br424      Br  0.15257928  0.92870312  0.73560427    -0.03100
Br425      Br  0.04740412  0.09827216  0.56512952    -0.00300
Br426      Br  0.14135861  0.86748603  0.60951663    -0.04700
loop_ 
_geom_bond_atom_site_label_1 
_geom_bond_atom_site_label_2 
_geom_bond_distance 
_geom_bond_site_symmetry_2 
_ccdc_geom_bond_type 
C1            N2   1.362       .  A
C1            N6   1.354       .  A
C1          C194   1.488       .  S
N2            C3   1.364       .  A
C3            N4   1.368   1_565  A
C3            C9   1.483       .  S
N4            C5   1.363       .  A
C5            N6   1.354   1_545  A
C5          C185   1.486       .  S
C7            N8   1.363       .  A
C7           N12   1.353   1_545  A
C7          C154   1.478       .  S
N8            C9   1.368   1_545  A
C9           N10   1.363       .  A
N10          C11   1.361       .  A
C11          N12   1.355       .  A
C11         C145   1.486       .  S
C13          N14   1.365       .  A
C13          N18   1.349       .  A
C13         C114   1.482       .  S
N14          C15   1.370       .  A
C15          N16   1.364       .  A
C15          C21   1.481       .  S
N16          C17   1.358       .  A
C17          N18   1.348       .  A
C17          C94   1.467       .  S
C19          N20   1.361       .  A
C19          N24   1.354       .  A
C19          C85   1.485       .  S
N20          C21   1.365       .  A
C21          N22   1.369       .  A
N22          C23   1.363       .  A
C23          N24   1.353       .  A
C23          C54   1.493       .  S
O25          C33   1.272   1_565  A
O25         Co45   2.026       .  S
O26          C34   1.295       .  A
O26         Co46   2.103       .  S
O27          C35   1.254       .  A
O27         Co47   1.965       .  S
O28          C36   1.270       .  A
O28        Co261   1.976   1_554  S
O29          C35   1.263       .  A
O29         Co46   2.011   1_545  S
O30          C36   1.278       .  A
O30         Co45   2.028       .  S
O31          C34   1.266       .  A
O31         Co48   1.901       .  S
O32          C33   1.261       .  A
O32        Co260   1.963       .  S
C33         C125   1.483       .  S
C34         C134   1.493       .  S
C35         C105   1.477       .  S
C36         C165   1.493       .  S
O37          C50   1.259       .  A
O37         Co45   1.972       .  S
O38          C51   1.269       .  A
O38         Co46   1.971       .  S
O39          C52   1.272   1_545  A
O39        Co260   2.022       .  S
O40          C53   1.298       .  A
O40         Co48   2.117       .  S
O41          C53   1.267       .  A
O41         Co46   1.895       .  S
O42          C52   1.264       .  A
O42         Co45   1.967       .  S
O43          C50   1.265       .  A
O43        Co261   2.016   1_554  S
O44          C51   1.283   1_545  A
O44         Co47   2.040       .  S
Co45        O262   2.027       .  S
Co46         O49   2.003       .  S
Co47        O245   1.963       .  S
Co47        O252   2.022       .  S
Co47         O49   2.021   1_545  S
Co48        O241   1.976       .  S
Co48        O256   2.016       .  S
Co48         O49   2.013       .  S
O49        Co258   2.027       .  S
C50          C74   1.495       .  S
C51         C174   1.502   1_655  S
C52         C205   1.494   1_655  S
C53          C65   1.490       .  S
C54          C55   1.414       .  A
C54          C59   1.407       .  A
C55          C56   1.410       .  A
C55         Br71   1.918       .  S
C56          C57   1.408       .  A
C56          H60   1.083       .  S
C57          C61   1.495       .  S
C57          C58   1.410       .  A
C58          C59   1.398       .  A
C58         Br70   1.922       .  S
C59          H62   1.084       .  S
C61          C63   1.406       .  A
C61          C67   1.412       .  A
C63          C64   1.408       .  A
C63          H68   1.084       .  S
C64          C65   1.414       .  A
C64         Br72   1.918       .  S
C65          C66   1.405       .  A
C66          C67   1.400       .  A
C66          H69   1.084       .  S
C67         Br73   1.922       .  S
C74          C75   1.418       .  A
C74          C79   1.411       .  A
C75          C76   1.402       .  A
C75         Br91   1.921       .  S
C76          C77   1.402       .  A
C76          H80   1.086       .  S
C77          C81   1.483       .  S
C77          C78   1.406       .  A
C78          C79   1.399       .  A
C78         Br90   1.920       .  S
C79          H82   1.085       .  S
C81          C83   1.406       .  A
C81          C87   1.406       .  A
C83          C84   1.407       .  A
C83          H88   1.083       .  S
C84          C85   1.413       .  A
C84         Br92   1.917       .  S
C85          C86   1.406       .  A
C86          C87   1.394       .  A
C86          H89   1.083       .  S
C87         Br93   1.920       .  S
C94          C95   1.409       .  A
C94          C99   1.402       .  A
C95          C96   1.393       .  A
C95        Br111   1.921       .  S
C96          C97   1.401       .  A
C96         H100   1.085       .  S
C97         C101   1.478       .  S
C97          C98   1.412       .  A
C98          C99   1.400       .  A
C98        Br110   1.919       .  S
C99         H102   1.085       .  S
C101        C103   1.404       .  A
C101        C107   1.407       .  A
C103        C104   1.399       .  A
C103        H108   1.083       .  S
C104        C105   1.412       .  A
C104       Br112   1.921       .  S
C105        C106   1.406       .  A
C106        C107   1.396       .  A
C106        H109   1.083       .  S
C107       Br113   1.921       .  S
C114        C115   1.410       .  A
C114        C119   1.409       .  A
C115        C116   1.403       .  A
C115       Br131   1.917       .  S
C116        C117   1.404       .  A
C116        H120   1.082       .  S
C117        C121   1.480       .  S
C117        C118   1.404       .  A
C118        C119   1.398       .  A
C118       Br130   1.920       .  S
C119        H122   1.082       .  S
C121        C123   1.403       .  A
C121        C127   1.405       .  A
C123        C124   1.402       .  A
C123        H128   1.083       .  S
C124        C125   1.414       .  A
C124       Br132   1.921       .  S
C125        C126   1.408       .  A
C126        C127   1.398       .  A
C126        H129   1.083       .  S
C127       Br133   1.918       .  S
C134        C135   1.420       .  A
C134        C139   1.411       .  A
C135        C136   1.403       .  A
C135       Br151   1.921       .  S
C136        C137   1.400       .  A
C136        H140   1.083       .  S
C137        C141   1.479       .  S
C137        C138   1.405       .  A
C138        C139   1.398       .  A
C138       Br150   1.920   1_565  S
C139        H142   1.082       .  S
C141        C143   1.403       .  A
C141        C147   1.404       .  A
C143        C144   1.404       .  A
C143        H148   1.083       .  S
C144        C145   1.414       .  A
C144       Br152   1.919   1_565  S
C145        C146   1.408       .  A
C146        C147   1.396       .  A
C146        H149   1.083       .  S
C147       Br153   1.920       .  S
C154        C155   1.412       .  A
C154        C159   1.402   1_545  A
C155        C156   1.403       .  A
C155       Br171   1.919       .  S
C156        C157   1.403   1_545  A
C156        H160   1.080       .  S
C157        C161   1.485       .  S
C157        C158   1.410       .  A
C158        C159   1.403       .  A
C158       Br170   1.918       .  S
C159        H162   1.080       .  S
C161        C163   1.401       .  A
C161        C167   1.406   1_565  A
C163        C164   1.399       .  A
C163        H168   1.084       .  S
C164        C165   1.418       .  A
C164       Br172   1.922       .  S
C165        C166   1.411       .  A
C166        C167   1.404   1_565  A
C166        H169   1.083   1_565  S
C167       Br173   1.917       .  S
C174        C175   1.421       .  A
C174        C179   1.412   1_565  A
C175        C176   1.403       .  A
C175       Br191   1.923       .  S
C176        C177   1.402       .  A
C176        H180   1.084       .  S
C177        C181   1.494   1_565  S
C177        C178   1.410   1_565  A
C178        C179   1.405       .  A
C178       Br190   1.919       .  S
C179        H182   1.083       .  S
C181        C183   1.403       .  A
C181        C187   1.414   1_545  A
C183        C184   1.400       .  A
C183        H188   1.085       .  S
C184        C185   1.412       .  A
C184       Br192   1.921       .  S
C185        C186   1.405   1_545  A
C186        C187   1.407       .  A
C186        H189   1.085       .  S
C187       Br193   1.918       .  S
C194        C195   1.418       .  A
C194        C199   1.407   1_565  A
C195        C196   1.398       .  A
C195       Br211   1.924       .  S
C196        C197   1.401       .  A
C196        H200   1.082       .  S
C197        C201   1.484       .  S
C197        C198   1.409   1_565  A
C198        C199   1.403       .  A
C198       Br210   1.917       .  S
C199        H202   1.082       .  S
C201        C203   1.401   1_565  A
C201        C207   1.407       .  A
C203        C204   1.402       .  A
C203        H208   1.082       .  S
C204        C205   1.420   1_545  A
C204       Br212   1.922       .  S
C205        C206   1.410       .  A
C206        C207   1.398       .  A
C206        H209   1.082       .  S
C207       Br213   1.919       .  S
C214        N215   1.362       .  A
C214        N219   1.354       .  A
C214        C407   1.488       .  S
N215        C216   1.364       .  A
C216        N217   1.368   1_565  A
C216        C222   1.483       .  S
N217        C218   1.363       .  A
C218        N219   1.354   1_545  A
C218        C398   1.486       .  S
C220        N221   1.363       .  A
C220        N225   1.353   1_545  A
C220        C367   1.478       .  S
N221        C222   1.368   1_545  A
C222        N223   1.363       .  A
N223        C224   1.361       .  A
C224        N225   1.355       .  A
C224        C358   1.486       .  S
C226        N227   1.365       .  A
C226        N231   1.349       .  A
C226        C327   1.482       .  S
N227        C228   1.370       .  A
C228        N229   1.364       .  A
C228        C234   1.481       .  S
N229        C230   1.358       .  A
C230        N231   1.348       .  A
C230        C307   1.467       .  S
C232        N233   1.360       .  A
C232        N237   1.354       .  A
C232        C298   1.485       .  S
N233        C234   1.365       .  A
C234        N235   1.369       .  A
N235        C236   1.363       .  A
C236        N237   1.353       .  A
C236        C267   1.493       .  S
O238        C246   1.272   1_565  A
O238       Co258   2.026       .  S
O239        C247   1.295       .  A
O239       Co259   2.103       .  S
O240        C248   1.254       .  A
O240       Co260   1.965   1_556  S
O241        C249   1.270       .  A
O242        C248   1.263       .  A
O242       Co259   2.011   1_545  S
O243        C249   1.278       .  A
O243       Co258   2.028       .  S
O244        C247   1.266       .  A
O244       Co261   1.901       .  S
O245        C246   1.261       .  A
C246        C338   1.483       .  S
C247        C347   1.493       .  S
C248        C318   1.477       .  S
C249        C378   1.493       .  S
O250        C263   1.259       .  A
O250       Co258   1.972       .  S
O251        C264   1.269       .  A
O251       Co259   1.971       .  S
O252        C265   1.272   1_545  A
O253        C266   1.298       .  A
O253       Co261   2.117       .  S
O254        C266   1.267       .  A
O254       Co259   1.895       .  S
O255        C265   1.264       .  A
O255       Co258   1.967       .  S
O256        C263   1.265       .  A
O257        C264   1.283   1_545  A
O257       Co260   2.040   1_556  S
Co259       O262   2.003   1_556  S
Co260       O262   2.021   1_545  S
Co261       O262   2.013   1_556  S
C263        C287   1.495       .  S
C264        C387   1.502   1_655  S
C265        C418   1.494   1_655  S
C266        C278   1.490       .  S
C267        C268   1.414       .  A
C267        C272   1.407       .  A
C268        C269   1.410       .  A
C268       Br284   1.918       .  S
C269        C270   1.408       .  A
C269        H273   1.083       .  S
C270        C274   1.495       .  S
C270        C271   1.410       .  A
C271        C272   1.398       .  A
C271       Br283   1.922       .  S
C272        H275   1.084       .  S
C274        C276   1.406       .  A
C274        C280   1.412       .  A
C276        C277   1.408       .  A
C276        H281   1.084       .  S
C277        C278   1.414       .  A
C277       Br285   1.918       .  S
C278        C279   1.405       .  A
C279        C280   1.400       .  A
C279        H282   1.084       .  S
C280       Br286   1.922       .  S
C287        C288   1.418       .  A
C287        C292   1.411       .  A
C288        C289   1.402       .  A
C288       Br304   1.921       .  S
C289        C290   1.402       .  A
C289        H293   1.086       .  S
C290        C294   1.483       .  S
C290        C291   1.406       .  A
C291        C292   1.399       .  A
C291       Br303   1.920       .  S
C292        H295   1.085       .  S
C294        C296   1.406       .  A
C294        C300   1.406       .  A
C296        C297   1.407       .  A
C296        H301   1.083       .  S
C297        C298   1.413       .  A
C297       Br305   1.917       .  S
C298        C299   1.406       .  A
C299        C300   1.394       .  A
C299        H302   1.083       .  S
C300       Br306   1.920       .  S
C307        C308   1.409       .  A
C307        C312   1.402       .  A
C308        C309   1.393       .  A
C308       Br324   1.921       .  S
C309        C310   1.401       .  A
C309        H313   1.085       .  S
C310        C314   1.478       .  S
C310        C311   1.412       .  A
C311        C312   1.400       .  A
C311       Br323   1.919       .  S
C312        H315   1.085       .  S
C314        C316   1.404       .  A
C314        C320   1.407       .  A
C316        C317   1.399       .  A
C316        H321   1.083       .  S
C317        C318   1.412       .  A
C317       Br325   1.921       .  S
C318        C319   1.406       .  A
C319        C320   1.396       .  A
C319        H322   1.083       .  S
C320       Br326   1.921       .  S
C327        C328   1.410       .  A
C327        C332   1.409       .  A
C328        C329   1.403       .  A
C328       Br344   1.917       .  S
C329        C330   1.404       .  A
C329        H333   1.082       .  S
C330        C334   1.480       .  S
C330        C331   1.404       .  A
C331        C332   1.398       .  A
C331       Br343   1.920       .  S
C332        H335   1.082       .  S
C334        C336   1.403       .  A
C334        C340   1.405       .  A
C336        C337   1.402       .  A
C336        H341   1.083       .  S
C337        C338   1.414       .  A
C337       Br345   1.921       .  S
C338        C339   1.408       .  A
C339        C340   1.398       .  A
C339        H342   1.083       .  S
C340       Br346   1.918       .  S
C347        C348   1.420       .  A
C347        C352   1.411       .  A
C348        C349   1.403       .  A
C348       Br364   1.921       .  S
C349        C350   1.400       .  A
C349        H353   1.083       .  S
C350        C354   1.479       .  S
C350        C351   1.405       .  A
C351        C352   1.398       .  A
C351       Br363   1.920   1_565  S
C352        H355   1.082       .  S
C354        C356   1.403       .  A
C354        C360   1.404       .  A
C356        C357   1.404       .  A
C356        H361   1.083       .  S
C357        C358   1.414       .  A
C357       Br365   1.919   1_565  S
C358        C359   1.408       .  A
C359        C360   1.396       .  A
C359        H362   1.083       .  S
C360       Br366   1.920       .  S
C367        C368   1.412       .  A
C367        C372   1.402   1_545  A
C368        C369   1.403       .  A
C368       Br384   1.919       .  S
C369        C370   1.403   1_545  A
C369        H373   1.080       .  S
C370        C374   1.485       .  S
C370        C371   1.410       .  A
C371        C372   1.403       .  A
C371       Br383   1.918       .  S
C372        H375   1.080       .  S
C374        C376   1.401       .  A
C374        C380   1.406   1_565  A
C376        C377   1.399       .  A
C376        H381   1.084       .  S
C377        C378   1.418       .  A
C377       Br385   1.922       .  S
C378        C379   1.411       .  A
C379        C380   1.404   1_565  A
C379        H382   1.083   1_565  S
C380       Br386   1.917       .  S
C387        C388   1.421       .  A
C387        C392   1.412   1_565  A
C388        C389   1.403       .  A
C388       Br404   1.923       .  S
C389        C390   1.402       .  A
C389        H393   1.084       .  S
C390        C394   1.494   1_565  S
C390        C391   1.410   1_565  A
C391        C392   1.405       .  A
C391       Br403   1.919       .  S
C392        H395   1.083       .  S
C394        C396   1.403       .  A
C394        C400   1.414   1_545  A
C396        C397   1.400       .  A
C396        H401   1.085       .  S
C397        C398   1.412       .  A
C397       Br405   1.921       .  S
C398        C399   1.405   1_545  A
C399        C400   1.407       .  A
C399        H402   1.085       .  S
C400       Br406   1.918       .  S
C407        C408   1.418       .  A
C407        C412   1.407   1_565  A
C408        C409   1.398       .  A
C408       Br424   1.924       .  S
C409        C410   1.401       .  A
C409        H413   1.082       .  S
C410        C414   1.484       .  S
C410        C411   1.409   1_565  A
C411        C412   1.403       .  A
C411       Br423   1.917       .  S
C412        H415   1.082       .  S
C414        C416   1.401   1_565  A
C414        C420   1.407       .  A
C416        C417   1.402       .  A
C416        H421   1.082       .  S
C417        C418   1.420   1_545  A
C417       Br425   1.922       .  S
C418        C419   1.410       .  A
C419        C420   1.398       .  A
C419        H422   1.082       .  S
C420       Br426   1.919       .  S
