geometry optimzed in LAMMPS
_audit_creation_date              2020-11-30 
_audit_creation_method            'lammps2cif' 
_symmetry_space_group_name_H-M    'P1' 
_symmetry_Int_Tables_number       1 
_symmetry_cell_setting            triclinic 
loop_ 
_symmetry_equiv_pos_as_xyz 
  x,y,z 
_cell_length_a                    44.29867119 
_cell_length_b                    44.3036904964098 
_cell_length_c                    81.59083558529392 
_cell_angle_alpha                 89.96846564989312 
_cell_angle_beta                  89.99238312410668 
_cell_angle_gamma                 89.96854503717374 
loop_ 
_atom_site_label 
_atom_site_type_symbol 
_atom_site_fract_x 
_atom_site_fract_y 
_atom_site_fract_z 
_atom_site_charge 
O1          O  0.47154822  0.99915944  0.66262621    -0.73600
O2          O  0.47310904  0.99920133  0.71182918    -0.74600
O3          O  0.47124383  0.04464971  0.68716335    -0.63200
O4          O  0.47350107  0.45405304  0.68734702    -0.71600
O5          O  0.02354067  0.45489483  0.68710772    -0.71200
O6          O  0.02127955  0.04547829  0.68655507    -0.62400
O7          O  0.02316345  0.50102942  0.71137930    -0.74900
O8          O  0.02170236  0.49977506  0.66216862    -0.73700
Cu9        Cu  0.47060578  0.99922179  0.68724677     1.04600
Cu10       Cu  0.02416836  0.50032067  0.68677315     1.04300
C11         C  0.99638567  0.99942213  0.65470378     0.92600
C12         C  0.49836674  0.50026752  0.71937563     0.91700
C13         C  0.99601947  0.05943053  0.68687606     0.83900
C14         C  0.99877006  0.44010259  0.68735477     0.90100
O15         O  0.47319788  0.25028105  0.71185514    -0.73600
O16         O  0.47157572  0.25049955  0.66264969    -0.74600
O17         O  0.47130225  0.20490474  0.68716574    -0.63200
O18         O  0.47353968  0.29548657  0.68738675    -0.71600
O19         O  0.02357961  0.29459786  0.68714313    -0.71200
O20         O  0.02133616  0.20400579  0.68653322    -0.62400
O21         O  0.02172960  0.24983512  0.66218678    -0.74900
O22         O  0.02325073  0.24835601  0.71139855    -0.73700
Cu23       Cu  0.47066065  0.25033278  0.68727145     1.04600
Cu24       Cu  0.02422232  0.24916759  0.68678564     1.04300
C25         C  0.49845790  0.24916381  0.71939799     0.92600
C26         C  0.49641244  0.25027640  0.65472546     0.91700
C27         C  0.49607125  0.19008837  0.68685940     0.83900
C28         C  0.49880564  0.30941231  0.68739104     0.90100
O29         O  0.22906851  0.49933293  0.66219970    -0.73600
O30         O  0.22695059  0.50124108  0.71141695    -0.74600
O31         O  0.22824561  0.04527186  0.68639419    -0.63200
O32         O  0.22781564  0.45471290  0.68723621    -0.71600
O33         O  0.27786531  0.45439733  0.68726851    -0.71200
O34         O  0.27825153  0.04500861  0.68758506    -0.62400
O35         O  0.27702860  0.49911642  0.71202169    -0.74900
O36         O  0.27921618  0.49994711  0.66280602    -0.73700
Cu37       Cu  0.22627231  0.50011176  0.68678619     1.04600
Cu38       Cu  0.27984273  0.49961879  0.68744122     1.04300
C39         C  0.25446160  0.49960359  0.65480836     0.92600
C40         C  0.25167941  0.50037645  0.71946005     0.91700
C41         C  0.25329997  0.05950506  0.68698464     0.83900
C42         C  0.25276983  0.44017880  0.68728234     0.90100
O43         O  0.27808602  0.20448895  0.68681002    -0.73600
O44         O  0.27773787  0.29505455  0.68756482    -0.74600
O45         O  0.27709337  0.24861050  0.71174978    -0.63200
O46         O  0.27881289  0.25042055  0.66257184    -0.71600
O47         O  0.22866009  0.24964333  0.66209942    -0.71200
O48         O  0.22700242  0.25023137  0.71131710    -0.62400
O49         O  0.22771984  0.29511422  0.68659075    -0.74900
O50         O  0.22803139  0.20450307  0.68684745    -0.73700
Cu51       Cu  0.27967807  0.24969030  0.68718800     1.04600
Cu52       Cu  0.22610005  0.24986084  0.68668985     1.04300
C53         C  0.25307904  0.19013051  0.68684218     0.92600
C54         C  0.25272123  0.30946015  0.68712464     0.91700
C55         C  0.25181186  0.24916193  0.71928285     0.83900
C56         C  0.25398523  0.25007840  0.65464421     0.90100
O57         O  0.45547099  0.03102524  0.82166840    -0.73600
O58         O  0.04602949  0.02822543  0.82206001    -0.74600
O59         O  0.00146944  0.02829489  0.79724966    -0.63200
O60         O  0.50060089  0.03107757  0.84641475    -0.71600
O61         O  0.50012048  0.48094335  0.84723904    -0.71200
O62         O  0.99870520  0.47824895  0.79804247    -0.62400
O63         O  0.04498163  0.47819594  0.82238401    -0.74900
O64         O  0.45439485  0.48104528  0.82287193    -0.73700
Cu65       Cu  0.00093526  0.03139990  0.82181368     1.04600
Cu66       Cu  0.49951196  0.47785221  0.82266407     1.04300
C67         C  0.44056672  0.50635332  0.82225561     0.92600
C68         C  0.05987800  0.50290913  0.82226396     0.91700
C69         C  0.49999946  0.50287380  0.78992779     0.83900
C70         C  0.00043469  0.50644013  0.85451336     0.90100
O71         O  0.45468180  0.26910123  0.82311478    -0.73600
O72         O  0.04530152  0.26955720  0.82236011    -0.74600
O73         O  0.99889220  0.27086402  0.79812306    -0.63200
O74         O  0.00058213  0.26792906  0.84733203    -0.71600
O75         O  0.99997505  0.21780176  0.84647993    -0.71200
O76         O  0.00101725  0.22078789  0.79725703    -0.62400
O77         O  0.04556760  0.21951341  0.82205181    -0.74900
O78         O  0.45500683  0.21912868  0.82162643    -0.73700
Cu79       Cu  0.99988299  0.27111680  0.82276199     1.04600
Cu80       Cu  0.00038125  0.21756025  0.82182543     1.04300
C81         C  0.44047715  0.24403927  0.82238302     0.92600
C82         C  0.05980742  0.24458679  0.82218238     0.91700
C83         C  0.99987842  0.24628286  0.78996723     0.83900
C84         C  0.00030517  0.24241633  0.85460204     0.90100
O85         O  0.24876647  0.02861267  0.79743303    -0.73600
O86         O  0.25005314  0.03100856  0.84662343    -0.74600
O87         O  0.29496555  0.03113944  0.82176587    -0.63200
O88         O  0.20438381  0.02832916  0.82236195    -0.71600
O89         O  0.20550800  0.47830005  0.82262217    -0.71200
O90         O  0.29606676  0.48114983  0.82283355    -0.62400
O91         O  0.25064514  0.48087077  0.84735343    -0.74900
O92         O  0.25145696  0.47859101  0.79813424    -0.73700
Cu93       Cu  0.24949374  0.03151708  0.82201919     1.04600
Cu94       Cu  0.25096041  0.47797788  0.82276277     1.04300
C95         C  0.25011878  0.50324459  0.79002979     0.92600
C96         C  0.25038016  0.50632180  0.85467746     0.91700
C97         C  0.30988427  0.50644960  0.82226271     0.83900
C98         C  0.19057444  0.50300276  0.82253085     0.90100
O99         O  0.20486892  0.26928146  0.82274712    -0.73600
O100        O  0.29543448  0.26896299  0.82229244    -0.74600
O101        O  0.24937530  0.27036539  0.79789596    -0.63200
O102        O  0.25052204  0.26794084  0.84710437    -0.71600
O103        O  0.24978214  0.21780527  0.84639380    -0.71200
O104        O  0.25106505  0.22027567  0.79718655    -0.62400
O105        O  0.29550412  0.21891341  0.82202288    -0.81300
O106        O  0.20488315  0.21928726  0.82151002    -0.73700
Cu107      Cu  0.25007945  0.27088400  0.82253126     1.04600
Cu108      Cu  0.25027249  0.21731622  0.82175291     1.04300
C109        C  0.19050329  0.24430776  0.82212759     0.92600
C110        C  0.30983478  0.24393601  0.82217717     0.91700
C111        C  0.25026704  0.24569999  0.78980672     0.83900
C112        C  0.25014775  0.24249757  0.85444300     0.90100
O113        O  0.47202784  0.50155021  0.29751363    -0.73600
O114        O  0.47142107  0.49950939  0.34670385    -0.74600
O115        O  0.47183977  0.04560640  0.32256172    -0.63200
O116        O  0.47175331  0.45499007  0.32165841    -0.71600
O117        O  0.02179125  0.45482661  0.32235074    -0.71200
O118        O  0.02188866  0.04538464  0.32220719    -0.62400
O119        O  0.02158451  0.50014678  0.34689164    -0.74900
O120        O  0.02212929  0.49964754  0.29769784    -0.73700
Cu121      Cu  0.47000405  0.50038420  0.32210401     1.04600
Cu122      Cu  0.02359482  0.50001484  0.32229410     1.04300
C123        C  0.49718410  0.50077369  0.28986797     0.92600
C124        C  0.99640298  0.49973786  0.35448767     0.91700
C125        C  0.49691024  0.05986662  0.32242488     0.83900
C126        C  0.49675482  0.44053992  0.32194819     0.90100
O127        O  0.02209956  0.20485512  0.32271916    -0.73600
O128        O  0.02207065  0.29547048  0.32198929    -0.74600
O129        O  0.02161291  0.25075070  0.34697282    -0.63200
O130        O  0.02262769  0.24923112  0.29778836    -0.71600
O131        O  0.47254874  0.25070500  0.29743315    -0.71200
O132        O  0.47145381  0.25012960  0.34663448    -0.62400
O133        O  0.47201925  0.29554804  0.32212588    -0.74900
O134        O  0.47206828  0.20498236  0.32194387    -0.73700
Cu135      Cu  0.02385511  0.25010360  0.32237921     1.04600
Cu136      Cu  0.47027831  0.25033106  0.32202453     1.04300
C137        C  0.99706333  0.19054683  0.32236346     0.92600
C138        C  0.99704520  0.30987891  0.32200830     0.91700
C139        C  0.99635250  0.25049621  0.35449504     0.83900
C140        C  0.99777278  0.24981714  0.28984734     0.90100
O141        O  0.27774145  0.04564347  0.32279175    -0.73600
O142        O  0.27814774  0.45506240  0.32167438    -0.74600
O143        O  0.27748791  0.50182984  0.29768270    -0.63200
O144        O  0.27853819  0.49941668  0.34683233    -0.71600
O145        O  0.22837375  0.50009569  0.34715577    -0.71200
O146        O  0.22737908  0.49972076  0.29796879    -0.62400
O147        O  0.22812261  0.45481329  0.32258414    -0.74900
O148        O  0.22769010  0.04540157  0.32250451    -0.73700
Cu149      Cu  0.27973106  0.50045754  0.32224124     1.04600
Cu150      Cu  0.22613648  0.50000957  0.32257074     1.04300
C151        C  0.25265107  0.05989223  0.32268112     0.92600
C152        C  0.25319215  0.44056765  0.32201755     0.91700
C153        C  0.25227696  0.50102924  0.29010795     0.83900
C154        C  0.25362376  0.49966211  0.35467944     0.90100
O155        O  0.22726159  0.24891939  0.29778066    -0.73600
O156        O  0.22834945  0.25108867  0.34692002    -0.74600
O157        O  0.22803366  0.29552813  0.32180400    -0.63200
O158        O  0.22771019  0.20494430  0.32283870    -0.71600
O159        O  0.27773707  0.20492682  0.32193678    -0.71200
O160        O  0.27808646  0.29552131  0.32200246    -0.62400
O161        O  0.27850771  0.25017967  0.34659268    -0.74900
O162        O  0.27737263  0.25065693  0.29739681    -0.73700
Cu163      Cu  0.22608981  0.25016472  0.32234978     1.04600
Cu164      Cu  0.27968187  0.25029692  0.32197409     1.04300
C165        C  0.25212297  0.24957870  0.28986257     0.92600
C166        C  0.25359519  0.25072922  0.35444531     0.91700
C167        C  0.25307255  0.30989434  0.32181010     0.83900
C168        C  0.25271334  0.19056490  0.32243671     0.90100
O169        O  0.01976576  0.50027141  0.46138087    -0.73600
O170        O  0.02058355  0.49993662  0.41221735    -0.74600
O171        O  0.02008796  0.04545543  0.43672069    -0.63200
O172        O  0.02011415  0.45480747  0.43693305    -0.71600
O173        O  0.47006521  0.45488824  0.43678067    -0.71200
O174        O  0.47004173  0.04542176  0.43647446    -0.62400
O175        O  0.47041809  0.49988203  0.41199946    -0.74900
O176        O  0.46972120  0.50040488  0.46121488    -0.73700
Cu177      Cu  0.02188520  0.50012229  0.43681604     1.04600
Cu178      Cu  0.46832036  0.50015245  0.43660385     1.04300
C179        C  0.99465623  0.50037349  0.46909994     0.92600
C180        C  0.99562047  0.49982405  0.40441805     0.91700
C181        C  0.99504069  0.05981157  0.43659423     0.83900
C182        C  0.99506857  0.44047919  0.43692513     0.90100
O183        O  0.02013466  0.25043775  0.41224517    -0.73600
O184        O  0.01928313  0.24979034  0.46140577    -0.74600
O185        O  0.01967517  0.20486668  0.43670145    -0.63200
O186        O  0.01969957  0.29540310  0.43700590    -0.71600
O187        O  0.46965303  0.29550909  0.43673796    -0.71200
O188        O  0.46962751  0.20486498  0.43655933    -0.62400
O189        O  0.46923887  0.25003685  0.46124878    -0.74900
O190        O  0.46997119  0.25038517  0.41200843    -0.73700
Cu191      Cu  0.02142880  0.25012719  0.43684353     1.04600
Cu192      Cu  0.46786540  0.25019995  0.43662478     1.04300
C193        C  0.99518391  0.25047870  0.40443426     0.92600
C194        C  0.99417886  0.24982775  0.46913002     0.91700
C195        C  0.99466584  0.19049371  0.43662679     0.83900
C196        C  0.99470096  0.30982556  0.43693639     0.90100
O197        O  0.27935663  0.50038861  0.46142964    -0.73600
O198        O  0.27949277  0.49982844  0.41224397    -0.74600
O199        O  0.27968863  0.04539537  0.43666905    -0.63200
O200        O  0.27923066  0.45484020  0.43699113    -0.71600
O201        O  0.22918005  0.45497432  0.43704535    -0.71200
O202        O  0.22963861  0.04560805  0.43673011    -0.62400
O203        O  0.22932148  0.50003211  0.41229136    -0.74900
O204        O  0.22930914  0.50055238  0.46143581    -0.73700
Cu205      Cu  0.28118765  0.50010333  0.43683652     1.04600
Cu206      Cu  0.22761740  0.50030679  0.43687139     1.04300
C207        C  0.25432608  0.50053488  0.46923164     0.92600
C208        C  0.25438113  0.49983541  0.40458264     0.91700
C209        C  0.25472331  0.05987175  0.43665733     0.83900
C210        C  0.25417767  0.44053702  0.43706842     0.90100
O211        O  0.27949541  0.25060937  0.41198886    -0.73600
O212        O  0.27990151  0.24995562  0.46120504    -0.74600
O213        O  0.27991355  0.20495870  0.43642643    -0.63200
O214        O  0.27943474  0.29557419  0.43675623    -0.71600
O215        O  0.22938712  0.29541882  0.43699100    -0.71200
O216        O  0.22986401  0.20484959  0.43654114    -0.62400
O217        O  0.22985753  0.24964938  0.46131008    -0.74900
O218        O  0.22932871  0.25054909  0.41214072    -0.73700
Cu219      Cu  0.28143701  0.25028521  0.43658687     1.04600
Cu220      Cu  0.22787157  0.25010918  0.43674544     1.04300
C221        C  0.25433467  0.25068313  0.40437442     0.92600
C222        C  0.25492843  0.24967910  0.46906011     0.91700
C223        C  0.25492658  0.19053433  0.43645712     0.83900
C224        C  0.25435735  0.30986726  0.43694703     0.90100
O225        O  0.04539834  0.48329338  0.07234830    -0.73600
O226        O  0.45482162  0.48358789  0.07249815    -0.74600
O227        O  0.50000069  0.48368111  0.04783361    -0.63200
O228        O  0.50026935  0.48328774  0.09707159    -0.71600
O229        O  0.50038472  0.03344169  0.09712625    -0.71200
O230        O  0.50000897  0.03371592  0.04794683    -0.62400
O231        O  0.45487351  0.03362625  0.07259607    -0.74900
O232        O  0.04547780  0.03333401  0.07240109    -0.73700
Cu233      Cu  0.50011012  0.48171195  0.07244143     1.04600
Cu234      Cu  0.00018780  0.03526603  0.07252788     1.04300
C235        C  0.05980686  0.50828078  0.07231462     0.92600
C236        C  0.44047450  0.50863080  0.07252102     0.91700
C237        C  0.49998736  0.50877650  0.04008576     0.83900
C238        C  0.50040983  0.50833825  0.10479340     0.90100
O239        O  0.99966518  0.26631248  0.04796704    -0.73600
O240        O  0.00016081  0.26678620  0.09714929    -0.74600
O241        O  0.04525805  0.26698547  0.07240221    -0.63200
O242        O  0.45466512  0.26611290  0.07266195    -0.71600
O243        O  0.45500133  0.21606945  0.07274260    -0.71200
O244        O  0.04558255  0.21694334  0.07261137    -0.62400
O245        O  0.00043212  0.21662281  0.09728289    -0.74900
O246        O  0.00024683  0.21627281  0.04811154    -0.73700
Cu247      Cu  0.99991822  0.26829783  0.07254684     1.04600
Cu248      Cu  0.00033441  0.21473616  0.07269771     1.04300
C249        C  0.99990584  0.24122080  0.04023998     0.92600
C250        C  0.00034888  0.24176294  0.10490302     0.91700
C251        C  0.05979089  0.24204983  0.07244093     0.83900
C252        C  0.44046263  0.24100198  0.07269513     0.90100
O253        O  0.24995906  0.03378764  0.04812765    -0.73600
O254        O  0.25006562  0.03337754  0.09732126    -0.74600
O255        O  0.29535877  0.03363782  0.07265123    -0.63200
O256        O  0.20475242  0.03333954  0.07269632    -0.71600
O257        O  0.20490933  0.48329776  0.07251999    -0.71200
O258        O  0.29548352  0.48359627  0.07260723    -0.62400
O259        O  0.25011444  0.48322157  0.09722263    -0.74900
O260        O  0.25031065  0.48375061  0.04798435    -0.73700
Cu261      Cu  0.25003152  0.03527373  0.07271377     1.04600
Cu262      Cu  0.25021303  0.48171763  0.07258843     1.04300
C263        C  0.25012656  0.50886186  0.04025261     0.92600
C264        C  0.25006011  0.50824630  0.10496924     0.91700
C265        C  0.30979280  0.50864258  0.07257747     0.83900
C266        C  0.19046169  0.50828062  0.07253845     0.90100
O267        O  0.29553433  0.26602291  0.07251388    -0.73600
O268        O  0.20496509  0.26687476  0.07233328    -0.74600
O269        O  0.25009589  0.26683631  0.09705291    -0.63200
O270        O  0.25040135  0.26607964  0.04785245    -0.71600
O271        O  0.25021069  0.21604393  0.04802343    -0.71200
O272        O  0.24976562  0.21668070  0.09726563    -0.62400
O273        O  0.20469775  0.21683290  0.07251204    -0.74900
O274        O  0.29530414  0.21598184  0.07275007    -0.73700
Cu275      Cu  0.25027251  0.26819170  0.07243493     1.04600
Cu276      Cu  0.24997597  0.21463683  0.07265099     1.04300
C277        C  0.30979064  0.24092712  0.07263366     0.92600
C278        C  0.19046092  0.24194379  0.07236190     0.91700
C279        C  0.24987313  0.24186254  0.10485453     0.83900
C280        C  0.25033396  0.24098045  0.04013083     0.90100
O281        O  0.50021567  0.48195348  0.16208440    -0.73600
O282        O  0.50076790  0.47951317  0.21124356    -0.74600
O283        O  0.45501862  0.48065081  0.18673106    -0.63200
O284        O  0.04564464  0.48103117  0.18652676    -0.71600
O285        O  0.04532541  0.03101364  0.18793116    -0.71200
O286        O  0.45476112  0.03070162  0.18692167    -0.62400
O287        O  0.49868912  0.02957726  0.21199891    -0.74900
O288        O  0.50087376  0.03209386  0.16278048    -0.73700
Cu289      Cu  0.50041246  0.47904241  0.18662597     1.04600
Cu290      Cu  0.49994253  0.03260274  0.18743265     1.04300
C291        C  0.50061776  0.00738033  0.15474193     0.92600
C292        C  0.49947824  0.50412588  0.21936391     0.91700
C293        C  0.44052273  0.00562730  0.18677575     0.83900
C294        C  0.05985559  0.00609544  0.18726142     0.90100
O295        O  0.00054354  0.26855429  0.16209204    -0.73600
O296        O  0.99869331  0.27131134  0.21121452    -0.74600
O297        O  0.04518343  0.26999552  0.18703927    -0.63200
O298        O  0.45458106  0.26968157  0.18626132    -0.71600
O299        O  0.45485451  0.21967984  0.18750105    -0.71200
O300        O  0.04543990  0.21995109  0.18745134    -0.62400
O301        O  0.00050957  0.22121277  0.21205889    -0.74900
O302        O  0.00013904  0.21840914  0.16288315    -0.73700
Cu303      Cu  0.99977771  0.27163447  0.18662197     1.04600
Cu304      Cu  0.00022639  0.21805742  0.18750458     1.04300
C305        C  0.00040884  0.24308318  0.15480527     0.92600
C306        C  0.99942400  0.24669435  0.21934999     0.91700
C307        C  0.05968401  0.24502477  0.18728272     0.83900
C308        C  0.44035345  0.24461718  0.18684122     0.90100
O309        O  0.25129063  0.02982618  0.21216379    -0.73600
O310        O  0.24970474  0.03200949  0.16293301    -0.74600
O311        O  0.20500480  0.03109279  0.18795907    -0.63200
O312        O  0.29559784  0.03075089  0.18719433    -0.71600
O313        O  0.29540052  0.48070483  0.18696320    -0.71200
O314        O  0.20479242  0.48109278  0.18677433    -0.62400
O315        O  0.25023259  0.48186623  0.16231773    -0.74900
O316        O  0.24967726  0.47977158  0.21149693    -0.73700
Cu317      Cu  0.25038005  0.03267331  0.18758621     1.04600
Cu318      Cu  0.25002893  0.47911686  0.18687506     1.04300
C319        C  0.25061782  0.50443371  0.21959492     0.92600
C320        C  0.24993296  0.00725537  0.15493149     0.91700
C321        C  0.19052892  0.50615295  0.18737992     0.83900
C322        C  0.30986761  0.50567451  0.18701096     0.90100
O323        O  0.20464939  0.21988147  0.18740496    -0.73600
O324        O  0.29525202  0.21962124  0.18750551    -0.74600
O325        O  0.24954270  0.22094629  0.21203761    -0.63200
O326        O  0.25002336  0.21853307  0.16283922    -0.71600
O327        O  0.24966521  0.26867795  0.16214330    -0.71200
O328        O  0.25109947  0.27102697  0.21129123    -0.62400
O329        O  0.29544552  0.26963368  0.18643604    -0.74900
O330        O  0.20485476  0.26992522  0.18702822    -0.73700
Cu331      Cu  0.24987773  0.21799102  0.18747309     1.04600
Cu332      Cu  0.25024054  0.27156015  0.18669999     1.04300
C333        C  0.19038006  0.24495883  0.18725021     0.92600
C334        C  0.30971503  0.24457286  0.18694052     0.91700
C335        C  0.25045704  0.24637081  0.21940525     0.83900
C336        C  0.24980050  0.24325538  0.15480089     0.90100
O337        O  0.00023814  0.03379932  0.91198413    -0.73600
O338        O  0.99981353  0.03437232  0.96126767    -0.74600
O339        O  0.04531009  0.03443898  0.93669566    -0.63200
O340        O  0.45472973  0.03385061  0.93649482    -0.71600
O341        O  0.45493847  0.48380352  0.93677295    -0.71200
O342        O  0.04554398  0.48438594  0.93687795    -0.62400
O343        O  0.00016458  0.48432995  0.96136847    -0.74900
O344        O  0.00041474  0.48363360  0.91225049    -0.73700
Cu345      Cu  0.00000347  0.03587409  0.93660710     1.04600
Cu346      Cu  0.00027447  0.48230899  0.93682534     1.04300
C347        C  0.00041035  0.50857118  0.90442779     0.92600
C348        C  0.99997073  0.50937847  0.96912339     0.91700
C349        C  0.05979544  0.50947104  0.93677842     0.83900
C350        C  0.44046197  0.50877379  0.93661478     0.90100
O351        O  0.00007789  0.21574846  0.91225671    -0.73600
O352        O  0.00003014  0.21572044  0.96151053    -0.74600
O353        O  0.45472965  0.21598763  0.93688163    -0.63200
O354        O  0.04534005  0.21553669  0.93691342    -0.71600
O355        O  0.04542192  0.26558014  0.93698716    -0.71200
O356        O  0.45485444  0.26603108  0.93683998    -0.62400
O357        O  0.99994831  0.26576080  0.96148838    -0.74900
O358        O  0.00029213  0.26590363  0.91229234    -0.73700
Cu359      Cu  0.00003192  0.21399758  0.93689067     1.04600
Cu360      Cu  0.00014292  0.26755485  0.93690239     1.04300
C361        C  0.00022081  0.24085531  0.90457532     0.92600
C362        C  0.99994574  0.24074825  0.96930307     0.91700
C363        C  0.44042082  0.24105847  0.93685450     0.83900
C364        C  0.05975154  0.24052560  0.93696376     0.90100
O365        O  0.25013615  0.48354116  0.91244989    -0.73600
O366        O  0.24998914  0.48442547  0.96155898    -0.74600
O367        O  0.20474422  0.48438056  0.93696631    -0.63200
O368        O  0.29535018  0.48383085  0.93706499    -0.71600
O369        O  0.29548044  0.03387790  0.93683089    -0.71200
O370        O  0.20490017  0.03442910  0.93665089    -0.62400
O371        O  0.24999274  0.03446796  0.96142529    -0.74900
O372        O  0.25037512  0.03370391  0.91213080    -0.73700
Cu373      Cu  0.25003652  0.48231737  0.93702306     1.04600
Cu374      Cu  0.25019854  0.03588069  0.93675658     1.04300
C375        C  0.25030346  0.50844764  0.90459991     0.92600
C376        C  0.24998245  0.50949151  0.96929645     0.91700
C377        C  0.19045163  0.50945892  0.93676739     0.83900
C378        C  0.30978542  0.50880688  0.93692914     0.90100
O379        O  0.25029641  0.21579498  0.96131561    -0.73600
O380        O  0.25010676  0.21599984  0.91206357    -0.74600
O381        O  0.29545980  0.21614795  0.93664451    -0.63200
O382        O  0.20488992  0.21568776  0.93675313    -0.71600
O383        O  0.20468625  0.26573102  0.93677361    -0.71200
O384        O  0.29529388  0.26619070  0.93675078    -0.62400
O385        O  0.24996703  0.26615643  0.91214031    -0.74900
O386        O  0.24997415  0.26582982  0.96135222    -0.73700
Cu387      Cu  0.25019666  0.21416458  0.93668963     1.04600
Cu388      Cu  0.24996745  0.26772006  0.93675394     1.04300
C389        C  0.25015596  0.24078635  0.96914270     0.92600
C390        C  0.25003988  0.24112781  0.90440456     0.91700
C391        C  0.30974811  0.24120794  0.93670192     0.83900
C392        C  0.19041753  0.24065665  0.93679041     0.90100
O393        O  0.01944918  0.50012403  0.54781435    -0.73600
O394        O  0.02008391  0.49985150  0.59697476    -0.74600
O395        O  0.01975415  0.45469957  0.57235056    -0.63200
O396        O  0.01965406  0.04529873  0.57247268    -0.71600
O397        O  0.46960612  0.04528886  0.57266610    -0.71200
O398        O  0.46970468  0.45470138  0.57240861    -0.62400
O399        O  0.46991859  0.49973380  0.59715649    -0.74900
O400        O  0.46940618  0.50025834  0.54790497    -0.73700
Cu401      Cu  0.02147045  0.49999849  0.57238940     1.04600
Cu402      Cu  0.46790632  0.49999549  0.57253595     1.04300
C403        C  0.99438636  0.50024046  0.54005407     0.92600
C404        C  0.99510303  0.49971326  0.60475801     0.91700
C405        C  0.99473678  0.44032938  0.57237999     0.83900
C406        C  0.99461834  0.05966412  0.57263588     0.90100
O407        O  0.01932043  0.24959628  0.54781252    -0.73600
O408        O  0.02014771  0.25025652  0.59698610    -0.74600
O409        O  0.01964331  0.20465682  0.57260149    -0.63200
O410        O  0.01975551  0.29524916  0.57223844    -0.71600
O411        O  0.46970713  0.29532620  0.57245149    -0.71200
O412        O  0.46959424  0.20473703  0.57273915    -0.62400
O413        O  0.46998175  0.25027519  0.59720252    -0.74900
O414        O  0.46927720  0.24983517  0.54797026    -0.73700
Cu415      Cu  0.02145691  0.24993786  0.57239395     1.04600
Cu416      Cu  0.46789239  0.25004412  0.57259516     1.04300
C417        C  0.99421735  0.24964073  0.54008642     0.92600
C418        C  0.99518077  0.25034450  0.60478554     0.91700
C419        C  0.99460547  0.19032686  0.57274466     0.83900
C420        C  0.99474418  0.30965869  0.57233451     0.90100
O421        O  0.28026154  0.49969673  0.59707917    -0.73600
O422        O  0.27956623  0.50022909  0.54788962    -0.74600
O423        O  0.27984084  0.04524710  0.57257565    -0.63200
O424        O  0.27993022  0.45464873  0.57232021    -0.71600
O425        O  0.22988276  0.45463849  0.57268556    -0.71200
O426        O  0.22979128  0.04523739  0.57258028    -0.62400
O427        O  0.22952243  0.49993135  0.54802893    -0.74900
O428        O  0.23009799  0.49995507  0.59723737    -0.73700
Cu429      Cu  0.28164205  0.49995390  0.57245990     1.04600
Cu430      Cu  0.22807765  0.49993744  0.57264024     1.04300
C431        C  0.25525954  0.49977296  0.60485272     0.92600
C432        C  0.25447398  0.50016363  0.54015755     0.91700
C433        C  0.25480526  0.05961296  0.57256683     0.83900
C434        C  0.25491719  0.44027438  0.57249768     0.90100
O435        O  0.27991360  0.24976298  0.54782069    -0.73600
O436        O  0.27991956  0.25007660  0.59701897    -0.74600
O437        O  0.27981695  0.20462401  0.57250505    -0.63200
O438        O  0.27992611  0.29522126  0.57230059    -0.71600
O439        O  0.22987422  0.29527401  0.57243756    -0.71200
O440        O  0.22976755  0.20467447  0.57240923    -0.62400
O441        O  0.22975260  0.24996832  0.59701006    -0.74900
O442        O  0.22986887  0.24992380  0.54780706    -0.73700
Cu443      Cu  0.28163633  0.24991951  0.57241115     1.04600
Cu444      Cu  0.22806958  0.24996916  0.57241231     1.04300
C445        C  0.25490432  0.24976572  0.54001015     0.92600
C446        C  0.25482853  0.25005401  0.60470610     0.91700
C447        C  0.25478402  0.19027881  0.57246470     0.83900
C448        C  0.25490861  0.30961641  0.57238034     0.90100
C449        C  0.22782482  0.39072878  0.57433213    -0.14000
C450        C  0.25493449  0.40684922  0.57249582     0.08100
C451        C  0.28205069  0.39071118  0.57066122    -0.14000
C452        C  0.28204681  0.35915828  0.57063093    -0.14000
C453        C  0.25492589  0.34304060  0.57242969     0.08100
C454        C  0.22782032  0.35917958  0.57429820    -0.14000
H455        H  0.20656553  0.40248500  0.57583850     0.12100
H456        H  0.30331331  0.40245610  0.56918644     0.12100
H457        H  0.30330608  0.34739718  0.56913426     0.12100
H458        H  0.20655915  0.34743685  0.57578303     0.12100
C459        C  0.22748253  0.10917911  0.57191112    -0.14000
C460        C  0.25478603  0.09304040  0.57253648     0.08100
C461        C  0.28208041  0.10916443  0.57312436    -0.14000
C462        C  0.28207365  0.14071057  0.57310031    -0.14000
C463        C  0.25477355  0.15685171  0.57248403     0.08100
C464        C  0.22747586  0.14073020  0.57188549    -0.14000
H465        H  0.20606503  0.09743969  0.57142348     0.12100
H466        H  0.30350509  0.09741722  0.57362582     0.12100
H467        H  0.30349411  0.15244482  0.57358416     0.12100
H468        H  0.20605376  0.15248234  0.57138054     0.12100
C469        C  0.02205216  0.39075565  0.57297201    -0.14000
C470        C  0.99474835  0.40690071  0.57239711     0.08100
C471        C  0.46744787  0.39078131  0.57184883    -0.14000
C472        C  0.46745320  0.35923433  0.57182651    -0.14000
C473        C  0.99475813  0.34308720  0.57235259     0.08100
C474        C  0.02205764  0.35920396  0.57294732    -0.14000
H475        H  0.04347289  0.40249083  0.57344755     0.12100
H476        H  0.44602108  0.40253248  0.57140576     0.12100
H477        H  0.44602821  0.34750394  0.57136995     0.12100
H478        H  0.04347985  0.34744727  0.57340996     0.12100
C479        C  0.02191191  0.10920920  0.57298760    -0.14000
C480        C  0.99459602  0.09309015  0.57280276     0.08100
C481        C  0.46726944  0.10923288  0.57277126    -0.14000
C482        C  0.46726509  0.14078384  0.57281554    -0.14000
C483        C  0.99458727  0.15690052  0.57288914     0.08100
C484        C  0.02190763  0.14075430  0.57303287    -0.14000
H485        H  0.04335451  0.09745945  0.57306321     0.12100
H486        H  0.44583118  0.09749797  0.57266433     0.12100
H487        H  0.44582529  0.15253936  0.57273544     0.12100
H488        H  0.04334880  0.15248343  0.57313518     0.12100
C489        C  0.39083817  0.21387070  0.93658747    -0.14000
C490        C  0.40699198  0.24115645  0.93682544     0.08100
C491        C  0.39088172  0.26850282  0.93701761    -0.14000
C492        C  0.35932006  0.26854674  0.93696839    -0.14000
C493        C  0.34317711  0.24124430  0.93672683     0.08100
C494        C  0.35929842  0.21391458  0.93653597    -0.14000
H495        H  0.40255732  0.19241483  0.93643023     0.12100
H496        H  0.40264983  0.28991896  0.93721041     0.12100
H497        H  0.34757907  0.28999090  0.93712816     0.12100
H498        H  0.34755267  0.19248669  0.93634633     0.12100
C499        C  0.10934744  0.21318208  0.93684648    -0.14000
C500        C  0.09317876  0.24049113  0.93696732     0.08100
C501        C  0.10927215  0.26781955  0.93705155    -0.14000
C502        C  0.14081138  0.26785442  0.93699707    -0.14000
C503        C  0.15699051  0.24056142  0.93685877     0.08100
C504        C  0.14090769  0.21321702  0.93679286    -0.14000
H505        H  0.09762716  0.19173686  0.93677906     0.12100
H506        H  0.09750542  0.28925056  0.93714879     0.12100
H507        H  0.15251071  0.28931079  0.93705939     0.12100
H508        H  0.15269547  0.19179701  0.93669031     0.12100
C509        C  0.39087431  0.03593242  0.93541510    -0.14000
C510        C  0.40703023  0.50870432  0.93660899     0.08100
C511        C  0.39092008  0.48147603  0.93787428    -0.14000
C512        C  0.35935733  0.48149149  0.93798754    -0.14000
C513        C  0.34321362  0.50873445  0.93683339     0.08100
C514        C  0.35933233  0.03594752  0.93552941    -0.14000
H515        H  0.40259591  0.05729401  0.93438326     0.12100
H516        H  0.40269146  0.46011889  0.93883775     0.12100
H517        H  0.34761305  0.46014247  0.93902101     0.12100
H518        H  0.34758170  0.05731653  0.93456776     0.12100
C519        C  0.10936741  0.48229733  0.93753756    -0.14000
C520        C  0.09321817  0.50956607  0.93673115     0.08100
C521        C  0.10932660  0.03686039  0.93585297    -0.14000
C522        C  0.14089238  0.03685309  0.93582876    -0.14000
C523        C  0.15702594  0.50955301  0.93668870     0.08100
C524        C  0.14090035  0.48229055  0.93751510    -0.14000
H525        H  0.09764749  0.46088882  0.93822553     0.12100
H526        H  0.09755554  0.05825524  0.93517319     0.12100
H527        H  0.15264402  0.05824532  0.93513927     0.12100
H528        H  0.15263862  0.46087926  0.93819252     0.12100
C529        C  0.39083890  0.21722456  0.18623157    -0.14000
C530        C  0.40693553  0.24453445  0.18678766     0.08100
C531        C  0.39078117  0.27182548  0.18735376    -0.14000
C532        C  0.35924558  0.27181381  0.18739757    -0.14000
C533        C  0.34313527  0.24451072  0.18686886     0.08100
C534        C  0.35927801  0.21721294  0.18627247    -0.14000
H535        H  0.40261923  0.19581909  0.18574802     0.12100
H536        H  0.40249819  0.29325591  0.18782506     0.12100
H537        H  0.34749476  0.29323576  0.18789381     0.12100
H538        H  0.34753348  0.19579831  0.18581414     0.12100
C539        C  0.10926162  0.21787600  0.18877334    -0.14000
C540        C  0.09311971  0.24507488  0.18733288     0.08100
C541        C  0.10924887  0.27225507  0.18588106    -0.14000
C542        C  0.14081377  0.27223528  0.18586787    -0.14000
C543        C  0.15694587  0.24503495  0.18730545     0.08100
C544        C  0.14080842  0.21785605  0.18875939    -0.14000
H545        H  0.09752628  0.19654456  0.18993846     0.12100
H546        H  0.09748933  0.29358103  0.18470297     0.12100
H547        H  0.15257127  0.29354856  0.18468221     0.12100
H548        H  0.15254659  0.19651244  0.18991676     0.12100
C549        C  0.39096769  0.03281907  0.18793739    -0.14000
C550        C  0.40709953  0.50558327  0.18670473     0.08100
C551        C  0.39097437  0.47836867  0.18547308    -0.14000
C552        C  0.35941235  0.47838171  0.18554469    -0.14000
C553        C  0.34329182  0.50560952  0.18685071     0.08100
C554        C  0.35942929  0.03283139  0.18801019    -0.14000
H555        H  0.40270335  0.05417874  0.18892327     0.12100
H556        H  0.40273329  0.45701664  0.18445304     0.12100
H557        H  0.34764889  0.45703748  0.18457093     0.12100
H558        H  0.34769842  0.05419888  0.18904252     0.12100
C559        C  0.10946004  0.47932545  0.18470069    -0.14000
C560        C  0.09328495  0.50620023  0.18729868     0.08100
C561        C  0.10937361  0.03311487  0.18989677    -0.14000
C562        C  0.14094432  0.03312896  0.18992626    -0.14000
C563        C  0.15710162  0.50622881  0.18736271     0.08100
C564        C  0.14100063  0.47933895  0.18473476    -0.14000
H565        H  0.09775122  0.45823268  0.18258311     0.12100
H566        H  0.09757600  0.05418459  0.19197067     0.12100
H567        H  0.15268753  0.05420890  0.19202259     0.12100
H568        H  0.15276834  0.45825806  0.18264005     0.12100
C569        C  0.24910494  0.26810812  0.01317508    -0.14000
C570        C  0.25034453  0.24084918  0.02197115     0.08100
C571        C  0.25152079  0.21352819  0.01323809    -0.14000
C572        C  0.25145827  0.21348714  0.99609533    -0.14000
C573        C  0.25021196  0.24076268  0.98730508     0.08100
C574        C  0.24903371  0.26806678  0.99604628    -0.14000
H575        H  0.24813103  0.28954792  0.01952301     0.12100
H576        H  0.25252023  0.19213826  0.01964273     0.12100
H577        H  0.25241745  0.19206043  0.98973363     0.12100
H578        H  0.24802053  0.28947073  0.98965672     0.12100
C579        C  0.24976737  0.24211392  0.12244277    -0.13900
C580        C  0.24974091  0.24249732  0.13721950    -0.15500
C581        C  0.25234671  0.48196503  0.01327181    -0.14000
C582        C  0.25010235  0.50908978  0.02210208     0.08100
C583        C  0.24782884  0.03641716  0.01341542    -0.14000
C584        C  0.24779064  0.03660206  0.99627473    -0.14000
C585        C  0.25001451  0.50945623  0.98745036     0.08100
C586        C  0.25230234  0.48214795  0.99614805    -0.14000
H587        H  0.25420206  0.46054036  0.01958664     0.12100
H588        H  0.24600761  0.05770674  0.01985698     0.12100
H589        H  0.24594463  0.05801007  0.98994287     0.12100
H590        H  0.25413347  0.46084008  0.98972521     0.12100
C591        C  0.24997166  0.50813397  0.12256257    -0.13900
C592        C  0.24990888  0.00791696  0.13734341    -0.15500
C593        C  0.39086220  0.26815276  0.07233663    -0.14000
C594        C  0.40703451  0.24086251  0.07265603     0.08100
C595        C  0.39094333  0.21352402  0.07291310    -0.14000
C596        C  0.35937296  0.21350479  0.07289747    -0.14000
C597        C  0.34321986  0.24082388  0.07262163     0.08100
C598        C  0.35933118  0.26813352  0.07231854    -0.14000
H599        H  0.40256125  0.28960481  0.07210233     0.12100
H600        H  0.40273092  0.19210717  0.07314339     0.12100
H601        H  0.34763389  0.19207355  0.07311600     0.12100
H602        H  0.34758413  0.28957126  0.07207303     0.12100
C603        C  0.10934787  0.26947927  0.07205720    -0.14000
C604        C  0.09321888  0.24216213  0.07229222     0.08100
C605        C  0.10935395  0.21484441  0.07240740    -0.14000
C606        C  0.14088235  0.21481208  0.07238163    -0.14000
C607        C  0.15703334  0.24209768  0.07224126     0.08100
C608        C  0.14092059  0.26944688  0.07203162    -0.14000
H609        H  0.09758927  0.29091530  0.07192825     0.12100
H610        H  0.09762631  0.19340517  0.07255725     0.12100
H611        H  0.15259643  0.19335289  0.07251520     0.12100
H612        H  0.15269338  0.29086259  0.07188588     0.12100
C613        C  0.99707520  0.26805029  0.99615017    -0.14000
C614        C  0.99984580  0.24081070  0.98745330     0.08100
C615        C  0.50254562  0.21368191  0.99627188    -0.14000
C616        C  0.50253483  0.21380359  0.01340588    -0.14000
C617        C  0.99981483  0.24105734  0.02209663     0.08100
C618        C  0.99705581  0.26817133  0.01327692    -0.14000
H619        H  0.99485750  0.28932844  0.98972599     0.12100
H620        H  0.50478144  0.19232094  0.98993834     0.12100
H621        H  0.50476189  0.19253313  0.01983766     0.12100
H622        H  0.99482952  0.28954089  0.01960372     0.12100
C623        C  0.00049189  0.24223598  0.13724130    -0.13900
C624        C  0.00045576  0.24190322  0.12247415    -0.15500
C625        C  0.39091876  0.48134703  0.07253769    -0.14000
C626        C  0.40704250  0.50866098  0.07244377     0.08100
C627        C  0.39089960  0.03597876  0.07226045    -0.14000
C628        C  0.35934242  0.03598423  0.07226412    -0.14000
C629        C  0.34322336  0.50867020  0.07245603     0.08100
C630        C  0.35937181  0.48135177  0.07254247    -0.14000
H631        H  0.40266621  0.45990511  0.07264289     0.12100
H632        H  0.40263966  0.05741229  0.07213590     0.12100
H633        H  0.34758407  0.05741964  0.07214554     0.12100
H634        H  0.34764332  0.45991145  0.07265353     0.12100
C635        C  0.10935063  0.03552850  0.07206045    -0.14000
C636        C  0.09323084  0.50822152  0.07220456     0.08100
C637        C  0.10937015  0.48089316  0.07230239    -0.14000
C638        C  0.14092824  0.48089214  0.07237599    -0.14000
C639        C  0.15703815  0.50821954  0.07235350     0.08100
C640        C  0.14088992  0.03552813  0.07213623    -0.14000
H641        H  0.09760470  0.05697045  0.07193572     0.12100
H642        H  0.09762840  0.45945972  0.07237524     0.12100
H643        H  0.15269208  0.45945922  0.07249614     0.12100
H644        H  0.15261287  0.05697082  0.07205843     0.12100
C645        C  0.99921460  0.03637924  0.01324043    -0.14000
C646        C  0.49997380  0.50897701  0.02193353     0.08100
C647        C  0.50075479  0.48176436  0.01310786    -0.14000
C648        C  0.50075194  0.48193818  0.99598229    -0.14000
C649        C  0.99996354  0.50932566  0.98727922     0.08100
C650        C  0.99920632  0.03655562  0.99610165    -0.14000
H651        H  0.99860174  0.05774427  0.01967452     0.12100
H652        H  0.50139398  0.46027368  0.01942685     0.12100
H653        H  0.50138699  0.46055790  0.98956387     0.12100
H654        H  0.99859065  0.05803420  0.98977042     0.12100
C655        C  0.50060279  0.00828619  0.12238190    -0.13900
C656        C  0.50069343  0.00810977  0.13715968    -0.15500
C657        C  0.28226854  0.25081793  0.49596807    -0.14000
C658        C  0.25498515  0.24946435  0.48720972     0.08100
C659        C  0.22769633  0.24804113  0.49596899    -0.14000
C660        C  0.22767471  0.24810148  0.51309674    -0.14000
C661        C  0.25494398  0.24957425  0.52185887     0.08100
C662        C  0.28224718  0.25087005  0.51310256    -0.14000
H663        H  0.30367743  0.25194277  0.48958969     0.12100
H664        H  0.20628712  0.24690686  0.48959418     0.12100
H665        H  0.20625835  0.24699494  0.51946845     0.12100
H666        H  0.30364828  0.25202301  0.51948427     0.12100
C667        C  0.28143929  0.39099858  0.43611044    -0.14000
C668        C  0.25416614  0.40710936  0.43715070     0.08100
C669        C  0.22693329  0.39095700  0.43821641    -0.14000
C670        C  0.22698065  0.35939579  0.43818846    -0.14000
C671        C  0.25426095  0.34329556  0.43708966     0.08100
C672        C  0.28148630  0.35945968  0.43607951    -0.14000
H673        H  0.30281086  0.40275365  0.43525547     0.12100
H674        H  0.20554164  0.40269269  0.43907581     0.12100
H675        H  0.20561922  0.34761795  0.43902665     0.12100
H676        H  0.30288883  0.34774838  0.43520371     0.12100
C677        C  0.28215927  0.10936114  0.43568638    -0.14000
C678        C  0.25484372  0.09329823  0.43656742     0.08100
C679        C  0.22760359  0.10949676  0.43737819    -0.14000
C680        C  0.22765904  0.14103248  0.43731655    -0.14000
C681        C  0.25495515  0.15710812  0.43644263     0.08100
C682        C  0.28221473  0.14092264  0.43562391    -0.14000
H683        H  0.30353810  0.09755550  0.43502865     0.12100
H684        H  0.20617785  0.09781509  0.43809569     0.12100
H685        H  0.20626887  0.15281237  0.43799384     0.12100
H686        H  0.30362952  0.15263002  0.43492613     0.12100
C687        C  0.22699665  0.00014478  0.49614299    -0.14000
C688        C  0.25431016  0.50061597  0.48737339     0.08100
C689        C  0.28163493  0.50104837  0.49611262    -0.14000
C690        C  0.28166101  0.50093251  0.51323487    -0.14000
C691        C  0.25436373  0.50037434  0.52201142     0.08100
C692        C  0.22702305  0.00002219  0.51327596    -0.14000
H693        H  0.20555238  0.99980569  0.48977478     0.12100
H694        H  0.30306331  0.50144775  0.48972796     0.12100
H695        H  0.30311553  0.50125568  0.51959173     0.12100
H696        H  0.20560439  0.99960887  0.51967026     0.12100
C697        C  0.46682143  0.25174629  0.49604209    -0.14000
C698        C  0.99406586  0.24963993  0.48728021     0.08100
C699        C  0.02129410  0.24740102  0.49603640    -0.14000
C700        C  0.02130559  0.24734108  0.51315918    -0.14000
C701        C  0.99408925  0.24951995  0.52193233     0.08100
C702        C  0.46683287  0.25168610  0.51318408    -0.14000
H703        H  0.44546238  0.25354606  0.48966040     0.12100
H704        H  0.04266746  0.24566518  0.48966224     0.12100
H705        H  0.04268689  0.24556688  0.51952059     0.12100
H706        H  0.44548135  0.25344724  0.51957738     0.12100
C707        C  0.02225809  0.39083308  0.43715610    -0.14000
C708        C  0.99498716  0.40705603  0.43706499     0.08100
C709        C  0.46761418  0.39102000  0.43706473    -0.14000
C710        C  0.46751385  0.35947364  0.43706492    -0.14000
C711        C  0.99478526  0.34324987  0.43706854     0.08100
C712        C  0.02215778  0.35928593  0.43715847    -0.14000
H713        H  0.04373293  0.40250161  0.43718579     0.12100
H714        H  0.44620714  0.40283608  0.43702537     0.12100
H715        H  0.44603842  0.34780645  0.43702676     0.12100
H716        H  0.04356390  0.34746902  0.43718935     0.12100
C717        C  0.02221511  0.10944357  0.43684031    -0.14000
C718        C  0.99495097  0.09324408  0.43661119     0.08100
C719        C  0.46757866  0.10931331  0.43643070    -0.14000
C720        C  0.46747378  0.14086465  0.43644380    -0.14000
C721        C  0.99474035  0.15706255  0.43663482     0.08100
C722        C  0.02211032  0.14099259  0.43685179    -0.14000
H723        H  0.04368885  0.09775476  0.43700786     0.12100
H724        H  0.44617448  0.09751842  0.43627226     0.12100
H725        H  0.44600082  0.15255589  0.43629283     0.12100
H726        H  0.04351510  0.15278537  0.43702729     0.12100
C727        C  0.02176800  0.99954703  0.49603981    -0.14000
C728        C  0.99450436  0.50041141  0.48724876     0.08100
C729        C  0.46715171  0.50125032  0.49597422    -0.14000
C730        C  0.46708112  0.50121124  0.51311347    -0.14000
C731        C  0.99436301  0.50033178  0.52189948     0.08100
C732        C  0.02169868  0.99950829  0.51316310    -0.14000
H733        H  0.04322957  0.99885760  0.48969485     0.12100
H734        H  0.44575602  0.50194654  0.48956613     0.12100
H735        H  0.44563565  0.50188166  0.51947423     0.12100
H736        H  0.04311191  0.99879354  0.51955278     0.12100
C737        C  0.26960828  0.26892211  0.26280994    -0.14000
C738        C  0.25164460  0.24889496  0.27187183     0.08100
C739        C  0.23325535  0.22808002  0.26363404    -0.14000
C740        C  0.23326358  0.22690728  0.24651708    -0.14000
C741        C  0.25082491  0.24727499  0.23742703     0.08100
C742        C  0.26878449  0.26848498  0.24568215    -0.14000
H743        H  0.28386153  0.28519544  0.26899297     0.12100
H744        H  0.21934399  0.21238527  0.27045924     0.12100
H745        H  0.21917999  0.21045191  0.24036384     0.12100
H746        H  0.28257853  0.28430693  0.23887552     0.12100
C747        C  0.25395482  0.25087689  0.37202270    -0.13900
C748        C  0.25415491  0.25086005  0.38679552    -0.15500
C749        C  0.22590348  0.39103676  0.32218616    -0.14000
C750        C  0.25323231  0.40713859  0.32177733     0.08100
C751        C  0.28051538  0.39097345  0.32118699    -0.14000
C752        C  0.28046494  0.35941392  0.32112984    -0.14000
C753        C  0.25312864  0.34332271  0.32164785     0.08100
C754        C  0.22585226  0.35949703  0.32211272    -0.14000
H755        H  0.20448178  0.40279794  0.32261438     0.12100
H756        H  0.30195180  0.40269489  0.32082164     0.12100
H757        H  0.30187615  0.34763066  0.32071883     0.12100
H758        H  0.20440751  0.34779394  0.32250080     0.12100
C759        C  0.27992211  0.10942863  0.32261470    -0.14000
C760        C  0.25258887  0.09332090  0.32269680     0.08100
C761        C  0.22527934  0.10947846  0.32270282    -0.14000
C762        C  0.22531591  0.14103681  0.32263326    -0.14000
C763        C  0.25266269  0.15713541  0.32254013     0.08100
C764        C  0.27995841  0.14096834  0.32252694    -0.14000
H765        H  0.30136078  0.09767165  0.32259124     0.12100
H766        H  0.20383570  0.09775156  0.32275077     0.12100
H767        H  0.20388730  0.15281295  0.32262812     0.12100
H768        H  0.30141149  0.15267684  0.32245529     0.12100
C769        C  0.23659850  0.47944656  0.26328250    -0.14000
C770        C  0.25191158  0.50180718  0.27213312     0.08100
C771        C  0.26676426  0.02504340  0.26371042    -0.14000
C772        C  0.26589191  0.02620574  0.24659286    -0.14000
C773        C  0.25100065  0.50356432  0.23766510     0.08100
C774        C  0.23657274  0.48003085  0.24614679    -0.14000
H775        H  0.22508994  0.46131853  0.26963448     0.12100
H776        H  0.27858438  0.04254033  0.27040072     0.12100
H777        H  0.27727288  0.04449893  0.24031933     0.12100
H778        H  0.22486793  0.46238008  0.23952348     0.12100
C779        C  0.25428402  0.49963470  0.38701451    -0.13900
C780        C  0.25401521  0.49955406  0.37224792    -0.15500
C781        C  0.47514957  0.26324883  0.26272637    -0.14000
C782        C  0.99823532  0.24926518  0.27177965     0.08100
C783        C  0.02173805  0.23454056  0.26342600    -0.14000
C784        C  0.02185825  0.23333912  0.24631032    -0.14000
C785        C  0.99903987  0.24768711  0.23731671     0.08100
C786        C  0.47583027  0.26288777  0.24559001    -0.14000
H787        H  0.45684662  0.27481040  0.26890332     0.12100
H788        H  0.03970470  0.22349353  0.27014477     0.12100
H789        H  0.03997620  0.22159341  0.24006913     0.12100
H790        H  0.45799714  0.27398691  0.23878578     0.12100
C791        C  0.99591902  0.25059023  0.37207676    -0.13900
C792        C  0.99551724  0.25058760  0.38685115    -0.15500
C793        C  0.46952913  0.39093833  0.32226610    -0.14000
C794        C  0.99679215  0.40711474  0.32185628     0.08100
C795        C  0.02415154  0.39103078  0.32142871    -0.14000
C796        C  0.02424776  0.35948378  0.32144996    -0.14000
C797        C  0.99698640  0.34330536  0.32190917     0.08100
C798        C  0.46962564  0.35938929  0.32229952    -0.14000
H799        H  0.44807204  0.40264512  0.32261581     0.12100
H800        H  0.04555584  0.40281215  0.32107944     0.12100
H801        H  0.04570833  0.34778122  0.32111863     0.12100
H802        H  0.44822328  0.34760713  0.32266311     0.12100
C803        C  0.46967215  0.10948096  0.32240527    -0.14000
C804        C  0.99697774  0.09329744  0.32248382     0.08100
C805        C  0.02431407  0.10938176  0.32256079    -0.14000
C806        C  0.02434144  0.14093505  0.32254215    -0.14000
C807        C  0.99703259  0.15711549  0.32243147     0.08100
C808        C  0.46969973  0.14102803  0.32236938    -0.14000
H809        H  0.44821538  0.09777900  0.32234098     0.12100
H810        H  0.04573879  0.09759945  0.32262559     0.12100
H811        H  0.04579483  0.15264365  0.32258880     0.12100
H812        H  0.44827158  0.15280402  0.32229163     0.12100
C813        C  0.01672406  0.48202956  0.26309733    -0.14000
C814        C  0.49747848  0.50134038  0.27185145     0.08100
C815        C  0.47877365  0.02145808  0.26327760    -0.14000
C816        C  0.47981973  0.02273349  0.24616233    -0.14000
C817        C  0.49877537  0.50313753  0.23738902     0.08100
C818        C  0.01695847  0.48253481  0.24596193    -0.14000
H819        H  0.03122893  0.46628476  0.26952165     0.12100
H820        H  0.46385780  0.03660359  0.26984453     0.12100
H821        H  0.46549700  0.03866617  0.23975493     0.12100
H822        H  0.03176187  0.46727021  0.23940318     0.12100
C823        C  0.99616116  0.49961218  0.37206648    -0.13900
C824        C  0.99590509  0.49965522  0.38683930    -0.15500
C825        C  0.25011723  0.24167577  0.87203074    -0.13900
C826        C  0.25007199  0.24127425  0.88681095    -0.15500
C827        C  0.25039667  0.50797042  0.88702132    -0.13900
C828        C  0.25042296  0.50722318  0.87225248    -0.15500
C829        C  0.39087531  0.27104424  0.82413526    -0.14000
C830        C  0.40705498  0.24393288  0.82238963     0.08100
C831        C  0.39097842  0.21679519  0.82060223    -0.14000
C832        C  0.35942068  0.21678664  0.82054099    -0.14000
C833        C  0.34325323  0.24391889  0.82224862     0.08100
C834        C  0.35933490  0.27103885  0.82405552    -0.14000
H835        H  0.40257684  0.29233334  0.82557702     0.12100
H836        H  0.40276938  0.19553289  0.81920345     0.12100
H837        H  0.34769636  0.19551000  0.81909599     0.12100
H838        H  0.34755534  0.29230708  0.82545496     0.12100
C839        C  0.10933760  0.21729204  0.82123532    -0.14000
C840        C  0.09324271  0.24460026  0.82214551     0.08100
C841        C  0.10941926  0.27182360  0.82305121    -0.14000
C842        C  0.14098215  0.27172704  0.82305307    -0.14000
C843        C  0.15706834  0.24440688  0.82213315     0.08100
C844        C  0.14088273  0.21719681  0.82122358    -0.14000
H845        H  0.09756445  0.19591831  0.82051061     0.12100
H846        H  0.09770326  0.29324002  0.82378959     0.12100
H847        H  0.15277215  0.29309100  0.82378327     0.12100
H848        H  0.15257961  0.19576924  0.82049514     0.12100
C849        C  0.00029656  0.24096962  0.88697682    -0.13900
C850        C  0.00033067  0.24143443  0.87219380    -0.15500
C851        C  0.39104372  0.03407405  0.82351435    -0.14000
C852        C  0.40713755  0.50682169  0.82218365     0.08100
C853        C  0.39096439  0.47968334  0.82079778    -0.14000
C854        C  0.35947784  0.47971073  0.82078838    -0.14000
C855        C  0.34331429  0.50687648  0.82216758     0.08100
C856        C  0.35941751  0.03410160  0.82350837    -0.14000
H857        H  0.40287122  0.05535803  0.82464615     0.12100
H858        H  0.40264075  0.45830245  0.81967515     0.12100
H859        H  0.34779388  0.45834703  0.81966382     0.12100
H860        H  0.34760038  0.05540404  0.82463920     0.12100
C861        C  0.10944694  0.47513141  0.82255220    -0.14000
C862        C  0.09331233  0.50248371  0.82240375     0.08100
C863        C  0.10945044  0.02976656  0.82242522    -0.14000
C864        C  0.14093013  0.02979230  0.82251781    -0.14000
C865        C  0.15713988  0.50253571  0.82258750     0.08100
C866        C  0.14107271  0.47515703  0.82264257    -0.14000
H867        H  0.09765965  0.45372344  0.82257018     0.12100
H868        H  0.09776092  0.05123896  0.82235180     0.12100
H869        H  0.15256593  0.05128203  0.82250147     0.12100
H870        H  0.15291382  0.45376649  0.82271653     0.12100
C871        C  0.00056525  0.50743345  0.87208352    -0.13900
C872        C  0.00056051  0.50816424  0.88685101    -0.15500
C873        C  0.23003966  0.26534708  0.74611705    -0.14000
C874        C  0.25131305  0.24832562  0.73732268     0.08100
C875        C  0.27212671  0.23036920  0.74589499    -0.14000
C876        C  0.27137988  0.22908135  0.76300952    -0.14000
C877        C  0.25052542  0.24656605  0.77179655     0.08100
C878        C  0.23001932  0.26490008  0.76326219    -0.14000
H879        H  0.21383776  0.27938841  0.73972798     0.12100
H880        H  0.28861552  0.21694616  0.73933122     0.12100
H881        H  0.28742785  0.21487971  0.76941127     0.12100
H882        H  0.21369147  0.27845260  0.76986615     0.12100
C883        C  0.25453275  0.25014127  0.63706312    -0.13900
C884        C  0.25478665  0.25012072  0.62228828    -0.15500
C885        C  0.22536835  0.35906346  0.68694271    -0.14000
C886        C  0.25269109  0.34290120  0.68722334     0.08100
C887        C  0.27999464  0.35901869  0.68757917    -0.14000
C888        C  0.27999025  0.39056445  0.68761904    -0.14000
C889        C  0.25268160  0.40673647  0.68731824     0.08100
C890        C  0.22536341  0.39062758  0.68699678    -0.14000
H891        H  0.20393304  0.34733230  0.68667344     0.12100
H892        H  0.30143204  0.34726658  0.68780419     0.12100
H893        H  0.30143604  0.40227672  0.68787725     0.12100
H894        H  0.20393651  0.40239827  0.68675655     0.12100
C895        C  0.22596559  0.10901716  0.68674320    -0.14000
C896        C  0.25331992  0.09292086  0.68698840     0.08100
C897        C  0.28060470  0.10907440  0.68724861    -0.14000
C898        C  0.28052677  0.14062606  0.68719898    -0.14000
C899        C  0.25316226  0.15671392  0.68690596     0.08100
C900        C  0.22588714  0.14055163  0.68671167    -0.14000
H901        H  0.20454357  0.09725556  0.68657529     0.12100
H902        H  0.30205861  0.09735049  0.68746298     0.12100
H903        H  0.30193863  0.15240538  0.68738901     0.12100
H904        H  0.20442329  0.15225771  0.68651345     0.12100
C905        C  0.26927406  0.48112396  0.74652617    -0.14000
C906        C  0.25100840  0.50093206  0.73748392     0.08100
C907        C  0.23233350  0.02145513  0.74578392    -0.14000
C908        C  0.23238735  0.02255450  0.76292134    -0.14000
C909        C  0.25028867  0.50239787  0.77197912     0.08100
C910        C  0.26850590  0.48147753  0.76365862    -0.14000
H911        H  0.28377456  0.46508729  0.74031982     0.12100
H912        H  0.21819723  0.03701637  0.73899526     0.12100
H913        H  0.21811131  0.03880922  0.76911238     0.12100
H914        H  0.28258190  0.46582556  0.77042065     0.12100
C915        C  0.25539782  0.49964832  0.62244170    -0.13900
C916        C  0.25515403  0.49957852  0.63722095    -0.15500
C917        C  0.47553705  0.26216862  0.74650558    -0.14000
C918        C  0.49898086  0.24871403  0.73748533     0.08100
C919        C  0.02282942  0.23464997  0.74589979    -0.14000
C920        C  0.02290761  0.23353511  0.76302998    -0.14000
C921        C  0.99967406  0.24731320  0.77198134     0.08100
C922        C  0.47614127  0.26188285  0.76364435    -0.14000
H923        H  0.45696376  0.27323743  0.74030116     0.12100
H924        H  0.04110349  0.22402919  0.73922281     0.12100
H925        H  0.04127763  0.22226966  0.76931379     0.12100
H926        H  0.45798123  0.27253299  0.77040425     0.12100
C927        C  0.49547108  0.25047402  0.62236759    -0.13900
C928        C  0.49586294  0.25045922  0.63714238    -0.15500
C929        C  0.02645088  0.39055230  0.68666285    -0.14000
C930        C  0.49915073  0.40666986  0.68764592     0.08100
C931        C  0.47195888  0.39051353  0.68884435    -0.14000
C932        C  0.47196849  0.35901447  0.68885670    -0.14000
C933        C  0.49917057  0.34284318  0.68767027     0.08100
C934        C  0.02646041  0.35894471  0.68667467    -0.14000
H935        H  0.04779583  0.40234379  0.68577121     0.12100
H936        H  0.45054576  0.40220656  0.68972258     0.12100
H937        H  0.45056235  0.34733371  0.68974272     0.12100
H938        H  0.04781224  0.34714064  0.68579028     0.12100
C939        C  0.46850233  0.10898190  0.68522360    -0.14000
C940        C  0.49566418  0.09285362  0.68697021     0.08100
C941        C  0.02274148  0.10898298  0.68882566    -0.14000
C942        C  0.02275674  0.14048093  0.68881458    -0.14000
C943        C  0.49569505  0.15666449  0.68695052     0.08100
C944        C  0.46851753  0.14059001  0.68521337    -0.14000
H945        H  0.44726126  0.09719355  0.68376529     0.12100
H946        H  0.04402410  0.09726350  0.69032118     0.12100
H947        H  0.04405086  0.15215847  0.69030418     0.12100
H948        H  0.44728838  0.15242031  0.68374970     0.12100
C949        C  0.02302665  0.01426744  0.74586483    -0.14000
C950        C  0.49889478  0.50071168  0.73746284     0.08100
C951        C  0.47517340  0.48778791  0.74649532    -0.14000
C952        C  0.47582811  0.48800415  0.76363083    -0.14000
C953        C  0.49971525  0.50196871  0.77195085     0.08100
C954        C  0.02318100  0.01530500  0.76299292    -0.14000
H955        H  0.04149047  0.02452989  0.73918238     0.12100
H956        H  0.45634017  0.47716970  0.74030475     0.12100
H957        H  0.45745689  0.47775845  0.77040238     0.12100
H958        H  0.04179065  0.02615602  0.76926959     0.12100
C959        C  0.99538200  0.49952170  0.62234238    -0.13900
C960        C  0.99582470  0.49940264  0.63711801    -0.15500
O961        O  0.47154909  0.49915535  0.66262593    -0.73600
O962        O  0.47311041  0.49920634  0.71182873    -0.74600
O963        O  0.47124215  0.54464938  0.68716088    -0.63200
O964        O  0.47349826  0.95405323  0.68734522    -0.71600
O965        O  0.02353866  0.95489381  0.68710708    -0.71200
O966        O  0.02127784  0.54547990  0.68655355    -0.62400
O967        O  0.02316281  0.00102727  0.71137978    -0.74900
O968        O  0.02170180  0.99977610  0.66216908    -0.73700
Cu969      Cu  0.47060672  0.49922176  0.68724638     1.04600
Cu970      Cu  0.02416795  0.00031955  0.68677364     1.04300
C971        C  0.99638620  0.49941878  0.65470340     0.92600
C972        C  0.49836549  0.00026307  0.71937584     0.91700
C973        C  0.99601714  0.55943125  0.68687386     0.83900
C974        C  0.99876768  0.94010218  0.68735303     0.90100
O975        O  0.47318730  0.75028347  0.71185482    -0.73600
O976        O  0.47157176  0.75049882  0.66264851    -0.74600
O977        O  0.47129338  0.70490544  0.68716551    -0.63200
O978        O  0.47353309  0.79548723  0.68738476    -0.71600
O979        O  0.02357409  0.79459758  0.68714208    -0.71200
O980        O  0.02132806  0.70400641  0.68653477    -0.62400
O981        O  0.02172608  0.74983298  0.66218734    -0.74900
O982        O  0.02324122  0.74835837  0.71139884    -0.73700
Cu983      Cu  0.47065298  0.75033363  0.68727050     1.04600
Cu984      Cu  0.02421551  0.74916767  0.68678611     1.04300
C985        C  0.49844701  0.74916636  0.71939808     0.92600
C986        C  0.49640957  0.75027440  0.65472520     0.91700
C987        C  0.49606247  0.69008911  0.68686016     0.83900
C988        C  0.49879931  0.80941249  0.68738882     0.90100
O989        O  0.22906577  0.99933231  0.66220043    -0.73600
O990        O  0.22694796  0.00123896  0.71141797    -0.74600
O991        O  0.22824966  0.54527316  0.68639299    -0.63200
O992        O  0.22781307  0.95471223  0.68723665    -0.71600
O993        O  0.27786280  0.95439723  0.68726896    -0.71200
O994        O  0.27825553  0.54500915  0.68758389    -0.62400
O995        O  0.27702604  0.99911542  0.71202237    -0.74900
O996        O  0.27921342  0.99994730  0.66280695    -0.73700
Cu997      Cu  0.22626924  0.00011061  0.68678707     1.04600
Cu998      Cu  0.27983975  0.99961847  0.68744206     1.04300
C999        C  0.25445901  0.99960335  0.65480917     0.92600
C1000       C  0.25167703  0.00037439  0.71946089     0.91700
C1001       C  0.25330425  0.55950603  0.68698350     0.83900
C1002       C  0.25276741  0.94017853  0.68728245     0.90100
O1003       O  0.27808986  0.70449076  0.68681028    -0.73600
O1004       O  0.27773792  0.79505615  0.68756299    -0.74600
O1005       O  0.27709833  0.74861440  0.71174928    -0.63200
O1006       O  0.27881156  0.75042073  0.66257109    -0.71600
O1007       O  0.22865872  0.74964210  0.66210031    -0.71200
O1008       O  0.22700729  0.75023349  0.71131788    -0.62400
O1009       O  0.22771975  0.79511426  0.68659058    -0.74900
O1010       O  0.22803523  0.70450356  0.68684922    -0.73700
Cu1011     Cu  0.27968003  0.74969225  0.68718724     1.04600
Cu1012     Cu  0.22610195  0.74986109  0.68669076     1.04300
C1013       C  0.25308327  0.69013167  0.68684330     0.92600
C1014       C  0.25272077  0.80946087  0.68712322     0.91700
C1015       C  0.25181745  0.74916540  0.71928301     0.83900
C1016       C  0.25398300  0.75007772  0.65464428     0.90100
O1017       O  0.45547405  0.53103674  0.82166967    -0.73600
O1018       O  0.04603237  0.52822748  0.82205908    -0.74600
O1019       O  0.00147012  0.52830163  0.79724966    -0.63200
O1020       O  0.50060637  0.53108250  0.84641519    -0.71600
O1021       O  0.50011962  0.98093846  0.84723983    -0.71200
O1022       O  0.99870478  0.97824235  0.79804256    -0.62400
O1023       O  0.04498132  0.97819384  0.82238453    -0.74900
O1024       O  0.45439429  0.98103370  0.82287170    -0.73700
Cu1025     Cu  0.00093859  0.53140614  0.82181391     1.04600
Cu1026     Cu  0.49951168  0.97784547  0.82266443     1.04300
C1027       C  0.44056502  0.00634095  0.82225441     0.92600
C1028       C  0.05987647  0.00290782  0.82226468     0.91700
C1029       C  0.49999874  0.00286643  0.78992771     0.83900
C1030       C  0.00043086  0.00643627  0.85451352     0.90100
O1031       O  0.45468244  0.76910006  0.82311494    -0.73600
O1032       O  0.04530239  0.76955615  0.82236114    -0.74600
O1033       O  0.99889266  0.77086389  0.79812354    -0.63200
O1034       O  0.00058196  0.76792731  0.84733247    -0.71600
O1035       O  0.99997529  0.71779998  0.84648008    -0.71200
O1036       O  0.00101762  0.72078778  0.79725708    -0.62400
O1037       O  0.04556836  0.71951236  0.82205228    -0.74900
O1038       O  0.45500756  0.71912748  0.82162642    -0.73700
Cu1039     Cu  0.99988358  0.77111579  0.82276252     1.04600
Cu1040     Cu  0.00038195  0.71755917  0.82182556     1.04300
C1041       C  0.44047790  0.74403805  0.82238285     0.92600
C1042       C  0.05980827  0.74458569  0.82218345     0.91700
C1043       C  0.99987765  0.74628294  0.78996748     0.83900
C1044       C  0.00030485  0.74241442  0.85460231     0.90100
O1045       O  0.24876423  0.52861852  0.79743251    -0.73600
O1046       O  0.25005333  0.53101209  0.84662344    -0.74600
O1047       O  0.29496464  0.53114954  0.82176490    -0.63200
O1048       O  0.20438353  0.52833029  0.82236260    -0.71600
O1049       O  0.20550569  0.97829888  0.82262276    -0.71200
O1050       O  0.29606453  0.98113950  0.82283381    -0.62400
O1051       O  0.25064306  0.98086728  0.84735448    -0.74900
O1052       O  0.25145462  0.97858484  0.79813483    -0.73700
Cu1053     Cu  0.24949271  0.53152226  0.82201898     1.04600
Cu1054     Cu  0.25095793  0.97797249  0.82276349     1.04300
C1055       C  0.25011888  0.00323861  0.79003041     0.92600
C1056       C  0.25037910  0.00631898  0.85467800     0.91700
C1057       C  0.30988350  0.00643839  0.82226298     0.83900
C1058       C  0.19057337  0.00300234  0.82253058     0.90100
O1059       O  0.20487026  0.76927951  0.82274758    -0.73600
O1060       O  0.29543566  0.76896106  0.82229232    -0.74600
O1061       O  0.24937671  0.77036353  0.79789623    -0.63200
O1062       O  0.25052385  0.76793924  0.84710445    -0.71600
O1063       O  0.24978409  0.71780367  0.84639398    -0.71200
O1064       O  0.25106635  0.72027384  0.79718652    -0.62400
O1065       O  0.29550534  0.71891148  0.82202264    -0.81300
O1066       O  0.20488431  0.71928534  0.82151058    -0.73700
Cu1067     Cu  0.25008084  0.77088205  0.82253142     1.04600
Cu1068     Cu  0.25027383  0.71731436  0.82175303     1.04300
C1069       C  0.19050449  0.74430587  0.82212838     0.92600
C1070       C  0.30983594  0.74393412  0.82217676     0.91700
C1071       C  0.25026897  0.74569836  0.78980684     0.83900
C1072       C  0.25014980  0.74249606  0.85444312     0.90100
O1073       O  0.47202461  0.00155133  0.29751455    -0.73600
O1074       O  0.47142314  0.99950928  0.34670465    -0.74600
O1075       O  0.47184066  0.54560623  0.32256034    -0.63200
O1076       O  0.47175261  0.95499055  0.32165911    -0.71600
O1077       O  0.02179044  0.95482693  0.32235001    -0.71200
O1078       O  0.02188954  0.54538418  0.32220712    -0.62400
O1079       O  0.02158662  0.00014659  0.34689106    -0.74900
O1080       O  0.02212599  0.99964890  0.29769750    -0.73700
Cu1081     Cu  0.47000348  0.00038457  0.32210500     1.04600
Cu1082     Cu  0.02359415  0.00001532  0.32229361     1.04300
C1083       C  0.49718029  0.00077553  0.28986831     0.92600
C1084       C  0.99640573  0.99973779  0.35448768     0.91700
C1085       C  0.49691128  0.55986629  0.32242374     0.83900
C1086       C  0.49675405  0.94054031  0.32194824     0.90100
O1087       O  0.02210018  0.70485535  0.32271943    -0.73600
O1088       O  0.02206862  0.79547085  0.32198943    -0.74600
O1089       O  0.02161270  0.75075149  0.34697291    -0.63200
O1090       O  0.02262675  0.74923098  0.29778875    -0.71600
O1091       O  0.47254826  0.75070406  0.29743330    -0.71200
O1092       O  0.47145374  0.75012928  0.34663473    -0.62400
O1093       O  0.47201753  0.79554784  0.32212612    -0.74900
O1094       O  0.47206933  0.70498193  0.32194399    -0.73700
Cu1095     Cu  0.02385442  0.75010403  0.32237943     1.04600
Cu1096     Cu  0.47027791  0.75033058  0.32202475     1.04300
C1097       C  0.99706419  0.69054666  0.32236342     0.92600
C1098       C  0.99704302  0.80987903  0.32200859     0.91700
C1099       C  0.99635241  0.75049661  0.35449520     0.83900
C1100       C  0.99777195  0.74981596  0.28984764     0.90100
O1101       O  0.27774077  0.54564375  0.32279225    -0.73600
O1102       O  0.27814937  0.95506255  0.32167486    -0.74600
O1103       O  0.27748668  0.00182889  0.29768240    -0.63200
O1104       O  0.27853986  0.99941756  0.34683219    -0.71600
O1105       O  0.22837540  0.00009592  0.34715623    -0.71200
O1106       O  0.22737786  0.99971958  0.29796942    -0.62400
O1107       O  0.22812426  0.95481227  0.32258523    -0.74900
O1108       O  0.22768945  0.54540182  0.32250428    -0.73700
Cu1109     Cu  0.27973171  0.00045748  0.32224107     1.04600
Cu1110     Cu  0.22613706  0.00000894  0.32257136     1.04300
C1111       C  0.25265031  0.55989247  0.32268121     0.92600
C1112       C  0.25319423  0.94056720  0.32201862     0.91700
C1113       C  0.25227520  0.00102825  0.29010812     0.83900
C1114       C  0.25362571  0.99966306  0.35467958     0.90100
O1115       O  0.22726632  0.74892044  0.29778046    -0.73600
O1116       O  0.22834966  0.75108839  0.34691975    -0.74600
O1117       O  0.22803848  0.79552821  0.32180412    -0.63200
O1118       O  0.22770969  0.70494484  0.32283802    -0.71600
O1119       O  0.27773667  0.70492581  0.32193729    -0.71200
O1120       O  0.27809127  0.79552031  0.32200367    -0.62400
O1121       O  0.27850792  0.75017779  0.34659348    -0.74900
O1122       O  0.27737747  0.75065599  0.29739766    -0.73700
Cu1123     Cu  0.22609219  0.75016525  0.32234944     1.04600
Cu1124     Cu  0.27968429  0.75029563  0.32197498     1.04300
C1125       C  0.25212832  0.74957835  0.28986292     0.92600
C1126       C  0.25359485  0.75072783  0.35444557     0.91700
C1127       C  0.25307765  0.80989387  0.32181097     0.83900
C1128       C  0.25271241  0.69056473  0.32243654     0.90100
O1129       O  0.01976292  0.00027054  0.46138073    -0.73600
O1130       O  0.02058451  0.99993637  0.41221764    -0.74600
O1131       O  0.02008853  0.54545562  0.43672057    -0.63200
O1132       O  0.02011163  0.95480691  0.43693285    -0.71600
O1133       O  0.47006227  0.95488827  0.43677974    -0.71200
O1134       O  0.47004228  0.54542181  0.43647517    -0.62400
O1135       O  0.47041884  0.99988237  0.41199867    -0.74900
O1136       O  0.46971836  0.00040446  0.46121448    -0.73700
Cu1137     Cu  0.02188390  0.00012177  0.43681613     1.04600
Cu1138     Cu  0.46831887  0.00015250  0.43660311     1.04300
C1139       C  0.99465329  0.00037272  0.46909965     0.92600
C1140       C  0.99562207  0.99982424  0.40441781     0.91700
C1141       C  0.99504126  0.55981165  0.43659469     0.83900
C1142       C  0.99506585  0.94047892  0.43692442     0.90100
O1143       O  0.02013546  0.75043825  0.41224525    -0.73600
O1144       O  0.01928288  0.74979036  0.46140571    -0.74600
O1145       O  0.01967684  0.70486684  0.43670149    -0.63200
O1146       O  0.01969811  0.79540344  0.43700599    -0.71600
O1147       O  0.46965099  0.79550831  0.43673784    -0.71200
O1148       O  0.46962867  0.70486455  0.43655916    -0.62400
O1149       O  0.46923813  0.75003572  0.46124856    -0.74900
O1150       O  0.46997156  0.75038464  0.41200829    -0.73700
Cu1151     Cu  0.02142902  0.75012753  0.43684356     1.04600
Cu1152     Cu  0.46786512  0.75019918  0.43662459     1.04300
C1153       C  0.99518479  0.75047882  0.40443428     0.92600
C1154       C  0.99417849  0.74982695  0.46912983     0.91700
C1155       C  0.99466766  0.69049356  0.43662694     0.83900
C1156       C  0.99469912  0.80982529  0.43693635     0.90100
O1157       O  0.27935826  0.00038731  0.46142963    -0.73600
O1158       O  0.27949492  0.99982992  0.41224398    -0.74600
O1159       O  0.27968650  0.54539496  0.43666857    -0.63200
O1160       O  0.27923215  0.95483992  0.43699030    -0.71600
O1161       O  0.22918157  0.95497447  0.43704458    -0.71200
O1162       O  0.22963646  0.54560750  0.43672970    -0.62400
O1163       O  0.22932362  0.00003374  0.41229129    -0.74900
O1164       O  0.22931079  0.00055156  0.46143585    -0.73700
Cu1165     Cu  0.28118949  0.00010339  0.43683645     1.04600
Cu1166     Cu  0.22761926  0.00030719  0.43687131     1.04300
C1167       C  0.25432775  0.00053347  0.46923169     0.92600
C1168       C  0.25438334  0.99983735  0.40458263     0.91700
C1169       C  0.25472115  0.55987122  0.43665694     0.83900
C1170       C  0.25417905  0.94053686  0.43706742     0.90100
O1171       O  0.27949444  0.75060759  0.41198888    -0.73600
O1172       O  0.27990130  0.74995452  0.46120509    -0.74600
O1173       O  0.27991237  0.70495747  0.43642668    -0.63200
O1174       O  0.27943474  0.79557312  0.43675589    -0.71600
O1175       O  0.22938715  0.79541830  0.43699101    -0.71200
O1176       O  0.22986285  0.70484892  0.43654141    -0.62400
O1177       O  0.22985735  0.74964882  0.46131031    -0.74900
O1178       O  0.22932774  0.75054812  0.41214099    -0.73700
Cu1179     Cu  0.28143638  0.75028394  0.43658687     1.04600
Cu1180     Cu  0.22787103  0.75010854  0.43674566     1.04300
C1181       C  0.25433357  0.75068156  0.40437458     0.92600
C1182       C  0.25492834  0.74967804  0.46906025     0.91700
C1183       C  0.25492524  0.69053340  0.43645741     0.83900
C1184       C  0.25435753  0.80986653  0.43694669     0.90100
O1185       O  0.04539900  0.98328970  0.07234793    -0.73600
O1186       O  0.45482197  0.98358350  0.07249938    -0.74600
O1187       O  0.49999955  0.98367751  0.04783392    -0.63200
O1188       O  0.50027133  0.98328337  0.09707238    -0.71600
O1189       O  0.50038267  0.53344604  0.09712560    -0.71200
O1190       O  0.50001007  0.53371952  0.04794562    -0.62400
O1191       O  0.45487291  0.53363064  0.07259451    -0.74900
O1192       O  0.04547761  0.53333769  0.07240132    -0.73700
Cu1193     Cu  0.50011058  0.98170762  0.07244200     1.04600
Cu1194     Cu  0.00018750  0.53526992  0.07252702     1.04300
C1195       C  0.05980727  0.00827724  0.07231389     0.92600
C1196       C  0.44047496  0.00862647  0.07252223     0.91700
C1197       C  0.49998562  0.00877348  0.04008652     0.83900
C1198       C  0.50041230  0.00833405  0.10479410     0.90100
O1199       O  0.99967006  0.76631246  0.04796705    -0.73600
O1200       O  0.00016236  0.76678560  0.09714950    -0.74600
O1201       O  0.04526140  0.76698520  0.07240322    -0.63200
O1202       O  0.45466858  0.76611302  0.07266109    -0.71600
O1203       O  0.45500461  0.71606955  0.07274167    -0.71200
O1204       O  0.04558594  0.71694308  0.07261218    -0.62400
O1205       O  0.00043352  0.71662222  0.09728292    -0.74900
O1206       O  0.00025156  0.71627279  0.04811152    -0.73700
Cu1207     Cu  0.99992158  0.76829758  0.07254696     1.04600
Cu1208     Cu  0.00033766  0.71473592  0.07269767     1.04300
C1209       C  0.99991075  0.74122079  0.04023996     0.92600
C1210       C  0.00034949  0.74176223  0.10490317     0.91700
C1211       C  0.05979428  0.74204960  0.07244211     0.83900
C1212       C  0.44046603  0.74100214  0.07269397     0.90100
O1213       O  0.24995856  0.53378912  0.04812701    -0.73600
O1214       O  0.25006531  0.53337791  0.09732108    -0.74600
O1215       O  0.29535818  0.53363943  0.07265095    -0.63200
O1216       O  0.20475227  0.53334067  0.07269631    -0.71600
O1217       O  0.20490974  0.98329662  0.07252033    -0.71200
O1218       O  0.29548353  0.98359466  0.07260763    -0.62400
O1219       O  0.25011469  0.98322116  0.09722302    -0.74900
O1220       O  0.25031084  0.98374910  0.04798477    -0.73700
Cu1221     Cu  0.25003114  0.53527485  0.07271346     1.04600
Cu1222     Cu  0.25021321  0.98171646  0.07258888     1.04300
C1223       C  0.25012690  0.00886054  0.04025317     0.92600
C1224       C  0.25006065  0.00824604  0.10496948     0.91700
C1225       C  0.30979311  0.00864074  0.07257764     0.83900
C1226       C  0.19046198  0.00827936  0.07253826     0.90100
O1227       O  0.29553775  0.76602326  0.07251266    -0.73600
O1228       O  0.20496858  0.76687480  0.07233434    -0.74600
O1229       O  0.25010151  0.76683671  0.09705299    -0.63200
O1230       O  0.25040266  0.76607904  0.04785228    -0.71600
O1231       O  0.25021223  0.71604333  0.04802360    -0.71200
O1232       O  0.24977146  0.71668113  0.09726577    -0.62400
O1233       O  0.20470133  0.71683294  0.07251326    -0.74900
O1234       O  0.29530780  0.71598219  0.07274900    -0.73700
Cu1235     Cu  0.25027595  0.76819172  0.07243485     1.04600
Cu1236     Cu  0.24997962  0.71463687  0.07265112     1.04300
C1237       C  0.30979417  0.74092753  0.07263222     0.92600
C1238       C  0.19046444  0.74194383  0.07236330     0.91700
C1239       C  0.24987957  0.74186296  0.10485468     0.83900
C1240       C  0.25033480  0.74097962  0.04013083     0.90100
O1241       O  0.50021742  0.98195436  0.16208534    -0.73600
O1242       O  0.50076607  0.97951674  0.21124418    -0.74600
O1243       O  0.45501886  0.98065348  0.18673066    -0.63200
O1244       O  0.04564487  0.98103288  0.18652785    -0.71600
O1245       O  0.04532491  0.53101189  0.18793056    -0.71200
O1246       O  0.45476088  0.53069892  0.18692248    -0.62400
O1247       O  0.49869079  0.52957364  0.21199863    -0.74900
O1248       O  0.50087227  0.53209290  0.16278044    -0.73700
Cu1249     Cu  0.50041251  0.97904485  0.18662668     1.04600
Cu1250     Cu  0.49994240  0.53260022  0.18743260     1.04300
C1251       C  0.50061559  0.50737994  0.15474140     0.92600
C1252       C  0.49947561  0.00412959  0.21936433     0.91700
C1253       C  0.44052244  0.50562462  0.18677697     0.83900
C1254       C  0.05985519  0.50609376  0.18726119     0.90100
O1255       O  0.00054308  0.76855276  0.16209247    -0.73600
O1256       O  0.99869891  0.77130856  0.21121505    -0.74600
O1257       O  0.04518644  0.76999325  0.18703782    -0.63200
O1258       O  0.45458387  0.76967954  0.18626406    -0.71600
O1259       O  0.45485745  0.71967779  0.18750359    -0.71200
O1260       O  0.04544274  0.71994883  0.18744942    -0.62400
O1261       O  0.00051560  0.72121000  0.21205914    -0.74900
O1262       O  0.00013815  0.71840762  0.16288336    -0.73700
Cu1263     Cu  0.99978052  0.77163238  0.18662247     1.04600
Cu1264     Cu  0.00022917  0.71805533  0.18750480     1.04300
C1265       C  0.00040743  0.74308178  0.15480556     0.92600
C1266       C  0.99942978  0.74669141  0.21935040     0.91700
C1267       C  0.05968697  0.74502244  0.18728028     0.83900
C1268       C  0.44035635  0.74461515  0.18684458     0.90100
O1269       O  0.25129238  0.52982595  0.21216396    -0.73600
O1270       O  0.24970224  0.53200956  0.16293311    -0.74600
O1271       O  0.20500409  0.53109292  0.18796073    -0.63200
O1272       O  0.29559751  0.53075046  0.18719376    -0.71600
O1273       O  0.29540144  0.98070524  0.18696352    -0.71200
O1274       O  0.20479288  0.98109262  0.18677292    -0.62400
O1275       O  0.25023486  0.98186610  0.16231764    -0.74900
O1276       O  0.24967638  0.97977183  0.21149684    -0.73700
Cu1277     Cu  0.25037956  0.53267326  0.18758647     1.04600
Cu1278     Cu  0.25002969  0.97911687  0.18687483     1.04300
C1279       C  0.25061583  0.00443404  0.21959486     0.92600
C1280       C  0.24993033  0.50725547  0.15493154     0.91700
C1281       C  0.19052950  0.00615297  0.18737766     0.83900
C1282       C  0.30986821  0.00567516  0.18701098     0.90100
O1283       O  0.20465261  0.71987895  0.18740400    -0.73600
O1284       O  0.29525526  0.71961868  0.18750722    -0.74600
O1285       O  0.24954447  0.72094323  0.21203801    -0.63200
O1286       O  0.25002898  0.71853123  0.16283942    -0.71600
O1287       O  0.24967064  0.76867610  0.16214392    -0.71200
O1288       O  0.25110144  0.77102392  0.21129186    -0.62400
O1289       O  0.29544882  0.76963115  0.18643798    -0.74900
O1290       O  0.20485794  0.76992269  0.18702764    -0.73700
Cu1291     Cu  0.24988109  0.71798849  0.18747343     1.04600
Cu1292     Cu  0.25024391  0.77155763  0.18670067     1.04300
C1293       C  0.19038322  0.74495628  0.18724877     0.92600
C1294       C  0.30971828  0.74457034  0.18694296     0.91700
C1295       C  0.25045944  0.74636764  0.21940576     0.83900
C1296       C  0.24980672  0.74325378  0.15480126     0.90100
O1297       O  0.00023878  0.53379373  0.91198412    -0.73600
O1298       O  0.99981453  0.53436589  0.96126672    -0.74600
O1299       O  0.04531046  0.53443003  0.93669482    -0.63200
O1300       O  0.45473014  0.53384524  0.93649444    -0.71600
O1301       O  0.45493955  0.98380889  0.93677297    -0.71200
O1302       O  0.04554499  0.98439492  0.93687872    -0.62400
O1303       O  0.00016476  0.98433641  0.96136871    -0.74900
O1304       O  0.00041588  0.98363926  0.91225123    -0.73700
Cu1305     Cu  0.00000405  0.53586748  0.93660659     1.04600
Cu1306     Cu  0.00027552  0.98231566  0.93682581     1.04300
C1307       C  0.00040998  0.00857627  0.90442812     0.92600
C1308       C  0.99996973  0.00938440  0.96912402     0.91700
C1309       C  0.05979579  0.00948043  0.93677947     0.83900
C1310       C  0.44046232  0.00877875  0.93661477     0.90100
O1311       O  0.00007810  0.71574705  0.91225685    -0.73600
O1312       O  0.00003390  0.71571951  0.96151057    -0.74600
O1313       O  0.45473186  0.71598604  0.93688247    -0.63200
O1314       O  0.04534208  0.71553588  0.93691254    -0.71600
O1315       O  0.04542377  0.76557932  0.93698608    -0.71200
O1316       O  0.45485624  0.76602949  0.93684079    -0.62400
O1317       O  0.99995185  0.76575987  0.96148825    -0.74900
O1318       O  0.00029225  0.76590224  0.91229231    -0.73700
Cu1319     Cu  0.00003399  0.71399639  0.93689073     1.04600
Cu1320     Cu  0.00014473  0.76755367  0.93690228     1.04300
C1321       C  0.00022046  0.74085381  0.90457541     0.92600
C1322       C  0.99994974  0.74074742  0.96930302     0.91700
C1323       C  0.44042284  0.74105676  0.93685551     0.83900
C1324       C  0.05975349  0.74052485  0.93696256     0.90100
O1325       O  0.25013520  0.98354577  0.91245069    -0.73600
O1326       O  0.24998954  0.98442962  0.96155937    -0.74600
O1327       O  0.20474379  0.98438789  0.93696728    -0.63200
O1328       O  0.29535007  0.98383442  0.93706509    -0.71600
O1329       O  0.29547960  0.53387433  0.93683029    -0.71200
O1330       O  0.20489884  0.53442178  0.93664970    -0.62400
O1331       O  0.24999119  0.53446379  0.96142424    -0.74900
O1332       O  0.25037430  0.53369933  0.91213038    -0.73700
Cu1333     Cu  0.25003617  0.98232233  0.93702363     1.04600
Cu1334     Cu  0.25019731  0.53587571  0.93675576     1.04300
C1335       C  0.25030329  0.00845190  0.90460049     0.92600
C1336       C  0.24998346  0.00949522  0.96929716     0.91700
C1337       C  0.19045208  0.00946683  0.93676866     0.83900
C1338       C  0.30978579  0.00881021  0.93692928     0.90100
O1339       O  0.25029773  0.71579250  0.96131556    -0.73600
O1340       O  0.25010895  0.71599883  0.91206351    -0.74600
O1341       O  0.29546166  0.71614584  0.93664465    -0.63200
O1342       O  0.20489173  0.71568641  0.93675283    -0.71600
O1343       O  0.20468841  0.76572965  0.93677353    -0.71200
O1344       O  0.29529599  0.76618857  0.93675116    -0.62400
O1345       O  0.24996962  0.76615540  0.91214050    -0.74900
O1346       O  0.24997568  0.76582733  0.96135227    -0.73700
Cu1347     Cu  0.25019845  0.71416287  0.93668954     1.04600
Cu1348     Cu  0.24996959  0.76771826  0.93675409     1.04300
C1349       C  0.25015703  0.74078381  0.96914269     0.92600
C1350       C  0.25004231  0.74112691  0.90440463     0.91700
C1351       C  0.30975011  0.74120574  0.93670232     0.83900
C1352       C  0.19041951  0.74065540  0.93679009     0.90100
O1353       O  0.01945048  0.00012322  0.54781410    -0.73600
O1354       O  0.02008547  0.99985456  0.59697504    -0.74600
O1355       O  0.01975488  0.95470049  0.57235156    -0.63200
O1356       O  0.01965020  0.54529798  0.57247365    -0.71600
O1357       O  0.46960190  0.54528714  0.57266684    -0.71200
O1358       O  0.46970598  0.95470264  0.57240961    -0.62400
O1359       O  0.46992040  0.99973775  0.59715654    -0.74900
O1360       O  0.46940809  0.00025874  0.54790517    -0.73700
Cu1361     Cu  0.02147239  0.99999935  0.57238944     1.04600
Cu1362     Cu  0.46790862  0.99999735  0.57253607     1.04300
C1363       C  0.99438733  0.00024001  0.54005404     0.92600
C1364       C  0.99510442  0.99971750  0.60475824     0.91700
C1365       C  0.99473750  0.94033036  0.57238112     0.83900
C1366       C  0.99461414  0.55966291  0.57263696     0.90100
O1367       O  0.01931987  0.74959513  0.54781207    -0.73600
O1368       O  0.02014912  0.75025495  0.59698560    -0.74600
O1369       O  0.01964091  0.70465523  0.57260098    -0.63200
O1370       O  0.01975778  0.79524867  0.57223805    -0.71600
O1371       O  0.46971012  0.79532665  0.57245137    -0.71200
O1372       O  0.46959217  0.70473728  0.57273918    -0.62400
O1373       O  0.46998364  0.75027554  0.59720236    -0.74900
O1374       O  0.46927694  0.74983530  0.54797020    -0.73700
Cu1375     Cu  0.02145713  0.74993660  0.57239343     1.04600
Cu1376     Cu  0.46789307  0.75004457  0.57259510     1.04300
C1377       C  0.99421666  0.74964005  0.54008611     0.92600
C1378       C  0.99518235  0.75034355  0.60478520     0.91700
C1379       C  0.99460251  0.69032608  0.57274455     0.83900
C1380       C  0.99474672  0.80965878  0.57233435     0.90100
O1381       O  0.28026164  0.99969693  0.59708005    -0.73600
O1382       O  0.27956809  0.00022868  0.54789018    -0.74600
O1383       O  0.27983956  0.54524707  0.57257518    -0.63200
O1384       O  0.27993076  0.95464863  0.57232117    -0.71600
O1385       O  0.22988329  0.95463905  0.57268607    -0.71200
O1386       O  0.22979002  0.54523712  0.57258042    -0.62400
O1387       O  0.22952431  0.99993114  0.54802916    -0.74900
O1388       O  0.23009812  0.99995591  0.59723772    -0.73700
Cu1389     Cu  0.28164298  0.99995384  0.57246065     1.04600
Cu1390     Cu  0.22807861  0.99993785  0.57264048     1.04300
C1391       C  0.25525936  0.99977337  0.60485338     0.92600
C1392       C  0.25447600  0.00016312  0.54015790     0.91700
C1393       C  0.25480394  0.55961283  0.57256689     0.83900
C1394       C  0.25491750  0.94027462  0.57249842     0.90100
O1395       O  0.27991319  0.74976206  0.54782112    -0.73600
O1396       O  0.27991639  0.75007762  0.59701949    -0.74600
O1397       O  0.27981569  0.70462416  0.57250612    -0.63200
O1398       O  0.27992417  0.79522139  0.57230067    -0.71600
O1399       O  0.22987228  0.79527431  0.57243695    -0.71200
O1400       O  0.22976630  0.70467451  0.57240972    -0.62400
O1401       O  0.22974942  0.74996920  0.59700986    -0.74900
O1402       O  0.22986845  0.74992288  0.54780703    -0.73700
Cu1403     Cu  0.28163468  0.74991968  0.57241169     1.04600
Cu1404     Cu  0.22806792  0.74996927  0.57241218     1.04300
C1405       C  0.25490412  0.74976443  0.54001034     0.92600
C1406       C  0.25482494  0.75005496  0.60470624     0.91700
C1407       C  0.25478281  0.69027889  0.57246572     0.83900
C1408       C  0.25490673  0.80961664  0.57238002     0.90100
C1409       C  0.22782404  0.89072944  0.57433193    -0.14000
C1410       C  0.25493416  0.90684948  0.57249637     0.08100
C1411       C  0.28205014  0.89071104  0.57066198    -0.14000
C1412       C  0.28204564  0.85915816  0.57063131    -0.14000
C1413       C  0.25492434  0.84304085  0.57242942     0.08100
C1414       C  0.22781895  0.85918023  0.57429758    -0.14000
H1415       H  0.20656484  0.90248601  0.57583798     0.12100
H1416       H  0.30331300  0.90245560  0.56918766     0.12100
H1417       H  0.30330483  0.84739676  0.56913491     0.12100
H1418       H  0.20655738  0.84743772  0.57578187     0.12100
C1419       C  0.22748112  0.60917917  0.57191382    -0.14000
C1420       C  0.25478470  0.59304033  0.57253713     0.08100
C1421       C  0.28207923  0.60916430  0.57312359    -0.14000
C1422       C  0.28207260  0.64071049  0.57309986    -0.14000
C1423       C  0.25477239  0.65685174  0.57248539     0.08100
C1424       C  0.22747452  0.64073030  0.57188856    -0.14000
H1425       H  0.20606344  0.59743987  0.57142749     0.12100
H1426       H  0.30350405  0.59741700  0.57362352     0.12100
H1427       H  0.30349311  0.65244458  0.57358230     0.12100
H1428       H  0.20605251  0.65248240  0.57138513     0.12100
C1429       C  0.02205362  0.89075671  0.57297300    -0.14000
C1430       C  0.99474949  0.90690147  0.57239830     0.08100
C1431       C  0.46745005  0.89078153  0.57184974    -0.14000
C1432       C  0.46745610  0.85923446  0.57182695    -0.14000
C1433       C  0.99476060  0.84308756  0.57235277     0.08100
C1434       C  0.02205979  0.85920486  0.57294780    -0.14000
H1435       H  0.04347416  0.90249226  0.57344870     0.12100
H1436       H  0.44602306  0.90253229  0.57140674     0.12100
H1437       H  0.44603124  0.84750374  0.57137024     0.12100
H1438       H  0.04348211  0.84744855  0.57341030     0.12100
C1439       C  0.02190720  0.60920790  0.57298982    -0.14000
C1440       C  0.99459128  0.59308902  0.57280409     0.08100
C1441       C  0.46726458  0.60923215  0.57277146    -0.14000
C1442       C  0.46726070  0.64078332  0.57281531    -0.14000
C1443       C  0.99458320  0.65689960  0.57288955     0.08100
C1444       C  0.02190323  0.64075295  0.57303467    -0.14000
H1445       H  0.04334960  0.59745812  0.57306636     0.12100
H1446       H  0.44582629  0.59749747  0.57266385     0.12100
H1447       H  0.44582127  0.65253919  0.57273423     0.12100
H1448       H  0.04334455  0.65248172  0.57313771     0.12100
C1449       C  0.39084034  0.71386862  0.93658917    -0.14000
C1450       C  0.40699401  0.74115447  0.93682668     0.08100
C1451       C  0.39088361  0.76850076  0.93701833    -0.14000
C1452       C  0.35932199  0.76854451  0.93696890    -0.14000
C1453       C  0.34317912  0.74124204  0.93672764     0.08100
C1454       C  0.35930058  0.71391237  0.93653745    -0.14000
H1455       H  0.40255962  0.69241282  0.93643238     0.12100
H1456       H  0.40265160  0.78991697  0.93721078     0.12100
H1457       H  0.34758086  0.78998878  0.93712816     0.12100
H1458       H  0.34755480  0.69248429  0.93634808     0.12100
C1459       C  0.10934936  0.71318136  0.93684553    -0.14000
C1460       C  0.09318073  0.74049041  0.93696587     0.08100
C1461       C  0.10927423  0.76781881  0.93704983    -0.14000
C1462       C  0.14081351  0.76785355  0.93699571    -0.14000
C1463       C  0.15699251  0.74056042  0.93685805     0.08100
C1464       C  0.14090956  0.71321610  0.93679233    -0.14000
H1465       H  0.09762887  0.69173592  0.93677833     0.12100
H1466       H  0.09750763  0.78924975  0.93714666     0.12100
H1467       H  0.15251286  0.78930972  0.93705782     0.12100
H1468       H  0.15269726  0.69179605  0.93669030     0.12100
C1469       C  0.39087429  0.53592773  0.93541044    -0.14000
C1470       C  0.40703059  0.00870847  0.93660852     0.08100
C1471       C  0.39092084  0.98147908  0.93786843    -0.14000
C1472       C  0.35935799  0.98149403  0.93798170    -0.14000
C1473       C  0.34321399  0.00873763  0.93683303     0.08100
C1474       C  0.35933225  0.53594336  0.93552466    -0.14000
H1475       H  0.40259639  0.55728857  0.93437434     0.12100
H1476       H  0.40269245  0.96012158  0.93882763     0.12100
H1477       H  0.34761403  0.96014433  0.93901089     0.12100
H1478       H  0.34758177  0.55731175  0.93455869     0.12100
C1479       C  0.10936756  0.98230679  0.93753557    -0.14000
C1480       C  0.09321856  0.00957602  0.93673278     0.08100
C1481       C  0.10932594  0.53685011  0.93584729    -0.14000
C1482       C  0.14089161  0.53684320  0.93582310    -0.14000
C1483       C  0.15702636  0.00956217  0.93669039     0.08100
C1484       C  0.14090041  0.98229965  0.93751314    -0.14000
H1485       H  0.09764768  0.96089822  0.93822038     0.12100
H1486       H  0.09755477  0.55824448  0.93516437     0.12100
H1487       H  0.15264283  0.55823518  0.93513054     0.12100
H1488       H  0.15263826  0.96088789  0.93818745     0.12100
C1489       C  0.39084210  0.71722225  0.18623717    -0.14000
C1490       C  0.40693852  0.74453232  0.18679221     0.08100
C1491       C  0.39078407  0.77182332  0.18735765    -0.14000
C1492       C  0.35924853  0.77181150  0.18740109    -0.14000
C1493       C  0.34313843  0.74450827  0.18687267     0.08100
C1494       C  0.35928127  0.71721046  0.18627771    -0.14000
H1495       H  0.40262255  0.69581681  0.18575437     0.12100
H1496       H  0.40250103  0.79325389  0.18782827     0.12100
H1497       H  0.34749756  0.79323345  0.18789644     0.12100
H1498       H  0.34753690  0.69579573  0.18581994     0.12100
C1499       C  0.10926458  0.71787332  0.18876900    -0.14000
C1500       C  0.09312273  0.74507233  0.18732905     0.08100
C1501       C  0.10925197  0.77225251  0.18587710    -0.14000
C1502       C  0.14081695  0.77223264  0.18586434    -0.14000
C1503       C  0.15694896  0.74503231  0.18730242     0.08100
C1504       C  0.14081138  0.71785334  0.18875548    -0.14000
H1505       H  0.09752921  0.69654191  0.18993385     0.12100
H1506       H  0.09749263  0.79357826  0.18469908     0.12100
H1507       H  0.15257453  0.79354586  0.18467903     0.12100
H1508       H  0.15254945  0.69650965  0.18991287     0.12100
C1509       C  0.39096765  0.53281692  0.18793915    -0.14000
C1510       C  0.40709991  0.00558579  0.18670228     0.08100
C1511       C  0.39097518  0.97837114  0.18546937    -0.14000
C1512       C  0.35941322  0.97838360  0.18554152    -0.14000
C1513       C  0.34329234  0.00561085  0.18684932     0.08100
C1514       C  0.35942921  0.53282980  0.18801139    -0.14000
H1515       H  0.40270354  0.55417639  0.18892442     0.12100
H1516       H  0.40273444  0.95701936  0.18444834     0.12100
H1517       H  0.34764999  0.95703923  0.18456711     0.12100
H1518       H  0.34769868  0.55419762  0.18904277     0.12100
C1519       C  0.10945999  0.97932722  0.18469720    -0.14000
C1520       C  0.09328543  0.00620178  0.18729700     0.08100
C1521       C  0.10937254  0.53311354  0.18989894    -0.14000
C1522       C  0.14094324  0.53312800  0.18992939    -0.14000
C1523       C  0.15710218  0.00622958  0.18735915     0.08100
C1524       C  0.14100068  0.97934031  0.18473030    -0.14000
H1525       H  0.09775071  0.95823482  0.18257932     0.12100
H1526       H  0.09757443  0.55418332  0.19197209     0.12100
H1527       H  0.15268612  0.55420830  0.19202551     0.12100
H1528       H  0.15276795  0.95825966  0.18263476     0.12100
C1529       C  0.24910306  0.76810629  0.01317485    -0.14000
C1530       C  0.25034434  0.74084774  0.02197114     0.08100
C1531       C  0.25152186  0.71352651  0.01323829    -0.14000
C1532       C  0.25145945  0.71348500  0.99609551    -0.14000
C1533       C  0.25021210  0.74076028  0.98730507     0.08100
C1534       C  0.24903196  0.76806451  0.99604607    -0.14000
H1535       H  0.24812798  0.78954632  0.01952263     0.12100
H1536       H  0.25252252  0.69213685  0.01964309     0.12100
H1537       H  0.25241986  0.69205818  0.98973394     0.12100
H1538       H  0.24801760  0.78946819  0.98965639     0.12100
C1539       C  0.24977496  0.74211408  0.12244300    -0.13900
C1540       C  0.24974836  0.74249643  0.13721979    -0.15500
C1541       C  0.25234832  0.98196536  0.01327191    -0.14000
C1542       C  0.25010278  0.00908934  0.02210272     0.08100
C1543       C  0.24782930  0.53641702  0.01341420    -0.14000
C1544       C  0.24779083  0.53660055  0.99627346    -0.14000
C1545       C  0.25001549  0.00945856  0.98745106     0.08100
C1546       C  0.25230428  0.98214966  0.99614816    -0.14000
H1547       H  0.25420442  0.96054022  0.01958634     0.12100
H1548       H  0.24600901  0.55770711  0.01985531     0.12100
H1549       H  0.24594563  0.55800813  0.98994116     0.12100
H1550       H  0.25413642  0.96084226  0.98972481     0.12100
C1551       C  0.24997324  0.00813398  0.12256270    -0.13900
C1552       C  0.24990636  0.50791701  0.13734333    -0.15500
C1553       C  0.39086573  0.76815314  0.07233503    -0.14000
C1554       C  0.40703796  0.74086283  0.07265434     0.08100
C1555       C  0.39094675  0.71352436  0.07291102    -0.14000
C1556       C  0.35937640  0.71350524  0.07289529    -0.14000
C1557       C  0.34322336  0.74082436  0.07261975     0.08100
C1558       C  0.35933470  0.76813400  0.07231684    -0.14000
H1559       H  0.40256482  0.78960512  0.07210101     0.12100
H1560       H  0.40273425  0.69210752  0.07314123     0.12100
H1561       H  0.34763728  0.69207398  0.07311364     0.12100
H1562       H  0.34758773  0.78957171  0.07207154     0.12100
C1563       C  0.10935128  0.76947920  0.07205930    -0.14000
C1564       C  0.09322232  0.74216201  0.07229392     0.08100
C1565       C  0.10935747  0.71484433  0.07240897    -0.14000
C1566       C  0.14088589  0.71481206  0.07238323    -0.14000
C1567       C  0.15703683  0.74209769  0.07224309     0.08100
C1568       C  0.14092404  0.76944688  0.07203382    -0.14000
H1569       H  0.09759266  0.79091521  0.07193051     0.12100
H1570       H  0.09762988  0.69340508  0.07255853     0.12100
H1571       H  0.15259999  0.69335290  0.07251652     0.12100
H1572       H  0.15269672  0.79086250  0.07188831     0.12100
C1573       C  0.99707970  0.76804987  0.99615004    -0.14000
C1574       C  0.99985025  0.74081016  0.98745325     0.08100
C1575       C  0.50254984  0.71368132  0.99627195    -0.14000
C1576       C  0.50253918  0.71380320  0.01340596    -0.14000
C1577       C  0.99981959  0.74105720  0.02209658     0.08100
C1578       C  0.99706036  0.76817110  0.01327680    -0.14000
H1579       H  0.99486196  0.78932789  0.98972581     0.12100
H1580       H  0.50478549  0.69232023  0.98993848     0.12100
H1581       H  0.50476609  0.69253296  0.01983776     0.12100
H1582       H  0.99483404  0.78954061  0.01960353     0.12100
C1583       C  0.00048966  0.74223484  0.13724155    -0.13900
C1584       C  0.00045441  0.74190226  0.12247436    -0.15500
C1585       C  0.39091863  0.98134343  0.07254040    -0.14000
C1586       C  0.40704292  0.00865707  0.07244428     0.08100
C1587       C  0.39089866  0.53598244  0.07226307    -0.14000
C1588       C  0.35934149  0.53598720  0.07226706    -0.14000
C1589       C  0.34322370  0.00866769  0.07245584     0.08100
C1590       C  0.35937159  0.98134889  0.07254481    -0.14000
H1591       H  0.40266556  0.95990147  0.07264784     0.12100
H1592       H  0.40263824  0.55741615  0.07214066     0.12100
H1593       H  0.34758268  0.55742240  0.07215077     0.12100
H1594       H  0.34764274  0.95990898  0.07265787     0.12100
C1595       C  0.10935073  0.53553131  0.07206529    -0.14000
C1596       C  0.09323123  0.00821847  0.07220296     0.08100
C1597       C  0.10937099  0.98089045  0.07230349    -0.14000
C1598       C  0.14092904  0.98089006  0.07237729    -0.14000
C1599       C  0.15703847  0.00821775  0.07235235     0.08100
C1600       C  0.14089002  0.53553028  0.07214083    -0.14000
H1601       H  0.09760520  0.55697344  0.07194306     0.12100
H1602       H  0.09762959  0.95945678  0.07237870     0.12100
H1603       H  0.15269326  0.95945733  0.07249986     0.12100
H1604       H  0.15261337  0.55697292  0.07206538     0.12100
C1605       C  0.99921745  0.53637885  0.01323870    -0.14000
C1606       C  0.49997092  0.00897602  0.02193428     0.08100
C1607       C  0.50075093  0.98176465  0.01310751    -0.14000
C1608       C  0.50074839  0.98194102  0.99598192    -0.14000
C1609       C  0.99996108  0.00932963  0.98727992     0.08100
C1610       C  0.99920878  0.53655288  0.99609993    -0.14000
H1611       H  0.99860421  0.55774467  0.01967201     0.12100
H1612       H  0.50138949  0.96027306  0.01942563     0.12100
H1613       H  0.50138293  0.96056169  0.98956267     0.12100
H1614       H  0.99859247  0.55803074  0.98976787     0.12100
C1615       C  0.50059958  0.50828953  0.12238127    -0.13900
C1616       C  0.50069028  0.50811092  0.13715908    -0.15500
C1617       C  0.28226873  0.75081472  0.49596824    -0.14000
C1618       C  0.25498520  0.74946274  0.48720988     0.08100
C1619       C  0.22769637  0.74804062  0.49596915    -0.14000
C1620       C  0.22767472  0.74810080  0.51309688    -0.14000
C1621       C  0.25494405  0.74957234  0.52185905     0.08100
C1622       C  0.28224730  0.75086670  0.51310276    -0.14000
H1623       H  0.30367745  0.75193853  0.48958993     0.12100
H1624       H  0.20628700  0.74690751  0.48959430     0.12100
H1625       H  0.20625834  0.74699531  0.51946853     0.12100
H1626       H  0.30364852  0.75201855  0.51948452     0.12100
C1627       C  0.28144016  0.89099787  0.43610885    -0.14000
C1628       C  0.25416718  0.90710898  0.43714946     0.08100
C1629       C  0.22693430  0.89095673  0.43821557    -0.14000
C1630       C  0.22698138  0.85939546  0.43818787    -0.14000
C1631       C  0.25426148  0.84329494  0.43708890     0.08100
C1632       C  0.28148691  0.85945885  0.43607817    -0.14000
H1633       H  0.30281163  0.90275263  0.43525352     0.12100
H1634       H  0.20554262  0.90269262  0.43907522     0.12100
H1635       H  0.20562001  0.84761785  0.43902644     0.12100
H1636       H  0.30288920  0.84774742  0.43520215     0.12100
C1637       C  0.28215744  0.60936025  0.43568808    -0.14000
C1638       C  0.25484161  0.59329756  0.43656730     0.08100
C1639       C  0.22760138  0.60949614  0.43737669    -0.14000
C1640       C  0.22765705  0.64103185  0.43731522    -0.14000
C1641       C  0.25495348  0.65710726  0.43644296     0.08100
C1642       C  0.28221314  0.64092167  0.43562586    -0.14000
H1643       H  0.30353640  0.59755449  0.43503163     0.12100
H1644       H  0.20617552  0.59781461  0.43809286     0.12100
H1645       H  0.20626683  0.65281187  0.43799125     0.12100
H1646       H  0.30362812  0.65262888  0.43492951     0.12100
C1647       C  0.22699472  0.50014582  0.49614276    -0.14000
C1648       C  0.25431200  0.00061412  0.48737351     0.08100
C1649       C  0.28163684  0.00104575  0.49611273    -0.14000
C1650       C  0.28166312  0.00093027  0.51323503    -0.14000
C1651       C  0.25436590  0.00037325  0.52201169     0.08100
C1652       C  0.22702095  0.50002283  0.51327570    -0.14000
H1653       H  0.20555043  0.49980621  0.48977444     0.12100
H1654       H  0.30306523  0.00144436  0.48972799     0.12100
H1655       H  0.30311764  0.00125291  0.51959184     0.12100
H1656       H  0.20560223  0.49960872  0.51966999     0.12100
C1657       C  0.46682043  0.75174395  0.49604190    -0.14000
C1658       C  0.99406524  0.74963857  0.48727998     0.08100
C1659       C  0.02129344  0.74740008  0.49603620    -0.14000
C1660       C  0.02130483  0.74734012  0.51315894    -0.14000
C1661       C  0.99408842  0.74951864  0.52193204     0.08100
C1662       C  0.46683194  0.75168368  0.51318389    -0.14000
H1663       H  0.44546132  0.75354337  0.48966019     0.12100
H1664       H  0.04266696  0.74566475  0.48966206     0.12100
H1665       H  0.04268618  0.74556644  0.51952037     0.12100
H1666       H  0.44548036  0.75344433  0.51957724     0.12100
C1667       C  0.02225517  0.89083299  0.43715426    -0.14000
C1668       C  0.99498416  0.90705577  0.43706427     0.08100
C1669       C  0.46761064  0.89101956  0.43706544    -0.14000
C1670       C  0.46751056  0.85947314  0.43706590    -0.14000
C1671       C  0.99478275  0.84324960  0.43706831     0.08100
C1672       C  0.02215507  0.85928592  0.43715688    -0.14000
H1673       H  0.04372987  0.90250155  0.43718288     0.12100
H1674       H  0.44620358  0.90283558  0.43702719     0.12100
H1675       H  0.44603514  0.84780564  0.43702897     0.12100
H1676       H  0.04356141  0.84746924  0.43718683     0.12100
C1677       C  0.02221630  0.60944327  0.43684043    -0.14000
C1678       C  0.99495187  0.59324411  0.43661202     0.08100
C1679       C  0.46757949  0.60931364  0.43643261    -0.14000
C1680       C  0.46747500  0.64086493  0.43644560    -0.14000
C1681       C  0.99474212  0.65706248  0.43663549     0.08100
C1682       C  0.02211191  0.64099229  0.43685181    -0.14000
H1683       H  0.04368982  0.59775427  0.43700736     0.12100
H1684       H  0.44617518  0.59751900  0.43627490     0.12100
H1685       H  0.44600211  0.65255636  0.43629530     0.12100
H1686       H  0.04351691  0.65278494  0.43702661     0.12100
C1687       C  0.02176986  0.49954546  0.49604044    -0.14000
C1688       C  0.99450188  0.00041046  0.48724853     0.08100
C1689       C  0.46715000  0.00124677  0.49597451    -0.14000
C1690       C  0.46708071  0.00120790  0.51311382    -0.14000
C1691       C  0.99436281  0.00033098  0.52189936     0.08100
C1692       C  0.02169942  0.49950658  0.51316372    -0.14000
H1693       H  0.04323178  0.49885399  0.48969577     0.12100
H1694       H  0.44575395  0.00194088  0.48956684     0.12100
H1695       H  0.44563560  0.00187634  0.51947500     0.12100
H1696       H  0.04311219  0.49878963  0.51955381     0.12100
C1697       C  0.26961539  0.76891857  0.26280991    -0.14000
C1698       C  0.25165093  0.74889287  0.27187225     0.08100
C1699       C  0.23326090  0.72807793  0.26363497    -0.14000
C1700       C  0.23326814  0.72690454  0.24651805    -0.14000
C1701       C  0.25082918  0.74727167  0.23742752     0.08100
C1702       C  0.26879053  0.76848091  0.24568214    -0.14000
H1703       H  0.28386960  0.78519163  0.26899261     0.12100
H1704       H  0.21934927  0.71238409  0.27046054     0.12100
H1705       H  0.21918362  0.71044942  0.24036522     0.12100
H1706       H  0.28258479  0.78430213  0.23887510     0.12100
C1707       C  0.25395341  0.75087494  0.37202293    -0.13900
C1708       C  0.25415349  0.75085813  0.38679573    -0.15500
C1709       C  0.22590731  0.89103553  0.32218740    -0.14000
C1710       C  0.25323559  0.90713811  0.32177888     0.08100
C1711       C  0.28051928  0.89097370  0.32118906    -0.14000
C1712       C  0.28046967  0.85941408  0.32113181    -0.14000
C1713       C  0.25313374  0.84332223  0.32164919     0.08100
C1714       C  0.22585696  0.85949591  0.32211384    -0.14000
H1715       H  0.20448512  0.90279613  0.32261530     0.12100
H1716       H  0.30195519  0.90269569  0.32082408     0.12100
H1717       H  0.30188129  0.84763120  0.32072109     0.12100
H1718       H  0.20441243  0.84779233  0.32250155     0.12100
C1719       C  0.27992078  0.60942882  0.32261268    -0.14000
C1720       C  0.25258770  0.59332105  0.32269671     0.08100
C1721       C  0.22527798  0.60947842  0.32270439    -0.14000
C1722       C  0.22531434  0.64103680  0.32263473    -0.14000
C1723       C  0.25266112  0.65713536  0.32253987     0.08100
C1724       C  0.27995687  0.64096841  0.32252486    -0.14000
H1725       H  0.30135945  0.59767206  0.32258777     0.12100
H1726       H  0.20383445  0.59775134  0.32275384     0.12100
H1727       H  0.20388570  0.65281294  0.32263099     0.12100
H1728       H  0.30140983  0.65267688  0.32245173     0.12100
C1729       C  0.23660012  0.97944343  0.26328247    -0.14000
C1730       C  0.25190856  0.00180696  0.27213329     0.08100
C1731       C  0.26677279  0.52503987  0.26371002    -0.14000
C1732       C  0.26590058  0.52620189  0.24659247    -0.14000
C1733       C  0.25099743  0.00356490  0.23766517     0.08100
C1734       C  0.23657429  0.98002824  0.24614671    -0.14000
H1735       H  0.22509560  0.96131269  0.26963428     0.12100
H1736       H  0.27859683  0.54253448  0.27040016     0.12100
H1737       H  0.27728556  0.54449235  0.24031865     0.12100
H1738       H  0.22487349  0.96237506  0.23952328     0.12100
C1739       C  0.25428644  0.99963709  0.38701456    -0.13900
C1740       C  0.25401770  0.99955600  0.37224800    -0.15500
C1741       C  0.47515145  0.76324634  0.26272601    -0.14000
C1742       C  0.99823516  0.74926211  0.27178002     0.08100
C1743       C  0.02173789  0.73453580  0.26342721    -0.14000
C1744       C  0.02186010  0.73333427  0.24631152    -0.14000
C1745       C  0.99904380  0.74768381  0.23731713     0.08100
C1746       C  0.47583413  0.76288503  0.24558969    -0.14000
H1747       H  0.45684851  0.77480901  0.26890233     0.12100
H1748       H  0.03970321  0.72348801  0.27014660     0.12100
H1749       H  0.03997816  0.72158758  0.24007100     0.12100
H1750       H  0.45800231  0.77398501  0.23878482     0.12100
C1751       C  0.99591936  0.75059087  0.37207686    -0.13900
C1752       C  0.99551815  0.75058817  0.38685122    -0.15500
C1753       C  0.46952770  0.89093896  0.32226605    -0.14000
C1754       C  0.99679076  0.90711508  0.32185666     0.08100
C1755       C  0.02414995  0.89103077  0.32142966    -0.14000
C1756       C  0.02424574  0.85948375  0.32145098    -0.14000
C1757       C  0.99698419  0.84330556  0.32190969     0.08100
C1758       C  0.46962384  0.85938984  0.32229953    -0.14000
H1759       H  0.44807080  0.90264597  0.32261524     0.12100
H1760       H  0.04555434  0.90281179  0.32108077     0.12100
H1761       H  0.04570614  0.84778105  0.32112004     0.12100
H1762       H  0.44822128  0.84760784  0.32266261     0.12100
C1763       C  0.46967366  0.60948082  0.32240224    -0.14000
C1764       C  0.99697888  0.59329714  0.32248261     0.08100
C1765       C  0.02431521  0.60938147  0.32256091    -0.14000
C1766       C  0.02434265  0.64093481  0.32254251    -0.14000
C1767       C  0.99703378  0.65711527  0.32243078     0.08100
C1768       C  0.46970129  0.64102785  0.32236669    -0.14000
H1769       H  0.44821666  0.59777883  0.32233672     0.12100
H1770       H  0.04574006  0.59759901  0.32262675     0.12100
H1771       H  0.04579596  0.65264345  0.32259036     0.12100
H1772       H  0.44827315  0.65280385  0.32228794     0.12100
C1773       C  0.01672298  0.98203502  0.26309758    -0.14000
C1774       C  0.49747369  0.00134251  0.27185178     0.08100
C1775       C  0.47878252  0.52145961  0.26327727    -0.14000
C1776       C  0.47982833  0.52273434  0.24616206    -0.14000
C1777       C  0.49877149  0.00314102  0.23738939     0.08100
C1778       C  0.01695780  0.98254067  0.24596225    -0.14000
H1779       H  0.03123088  0.96629296  0.26952185     0.12100
H1780       H  0.46386989  0.53660835  0.26984421     0.12100
H1781       H  0.46550862  0.53867001  0.23975472     0.12100
H1782       H  0.03176436  0.96727912  0.23940354     0.12100
C1783       C  0.99616515  0.99961222  0.37206640    -0.13900
C1784       C  0.99590832  0.99965551  0.38683915    -0.15500
C1785       C  0.25011957  0.74167456  0.87203085    -0.13900
C1786       C  0.25007436  0.74127352  0.88681105    -0.15500
C1787       C  0.25039624  0.00797322  0.88702186    -0.13900
C1788       C  0.25042223  0.00722255  0.87225304    -0.15500
C1789       C  0.39087613  0.77104281  0.82413433    -0.14000
C1790       C  0.40705587  0.74393152  0.82238886     0.08100
C1791       C  0.39097951  0.71679379  0.82060108    -0.14000
C1792       C  0.35942182  0.71678504  0.82053983    -0.14000
C1793       C  0.34325429  0.74391716  0.82224772     0.08100
C1794       C  0.35933581  0.77103722  0.82405454    -0.14000
H1795       H  0.40257757  0.79233198  0.82557619     0.12100
H1796       H  0.40277065  0.69553150  0.81920219     0.12100
H1797       H  0.34769757  0.69550829  0.81909477     0.12100
H1798       H  0.34755611  0.79230547  0.82545407     0.12100
C1799       C  0.10933842  0.71729053  0.82123726    -0.14000
C1800       C  0.09324366  0.74459889  0.82214722     0.08100
C1801       C  0.10942041  0.77182209  0.82305314    -0.14000
C1802       C  0.14098333  0.77172528  0.82305487    -0.14000
C1803       C  0.15706944  0.74440509  0.82213462     0.08100
C1804       C  0.14088360  0.71719512  0.82122538    -0.14000
H1805       H  0.09756522  0.69591702  0.82051262     0.12100
H1806       H  0.09770459  0.79323846  0.82379153     0.12100
H1807       H  0.15277354  0.79308936  0.82378503     0.12100
H1808       H  0.15258041  0.69576737  0.82049690     0.12100
C1809       C  0.00029539  0.74096783  0.88697699    -0.13900
C1810       C  0.00032961  0.74143233  0.87219401    -0.15500
C1811       C  0.39104481  0.53408976  0.82350237    -0.14000
C1812       C  0.40713613  0.00680830  0.82218160     0.08100
C1813       C  0.39096300  0.97967234  0.82078161    -0.14000
C1814       C  0.35947623  0.97970000  0.82077285    -0.14000
C1815       C  0.34331327  0.00686363  0.82216672     0.08100
C1816       C  0.35941830  0.53411703  0.82349579    -0.14000
H1817       H  0.40287220  0.55537588  0.82462288     0.12100
H1818       H  0.40263968  0.95829363  0.81964738     0.12100
H1819       H  0.34779153  0.95833861  0.81963710     0.12100
H1820       H  0.34760081  0.55542151  0.82461500     0.12100
C1821       C  0.10944591  0.97513163  0.82255456    -0.14000
C1822       C  0.09331095  0.00248363  0.82240409     0.08100
C1823       C  0.10945205  0.52976637  0.82242768    -0.14000
C1824       C  0.14093149  0.52979190  0.82252083    -0.14000
C1825       C  0.15713869  0.00253619  0.82258692     0.08100
C1826       C  0.14107155  0.97515756  0.82264451    -0.14000
H1827       H  0.09765892  0.95372347  0.82257461     0.12100
H1828       H  0.09776273  0.55123921  0.82235613     0.12100
H1829       H  0.15256718  0.55128157  0.82250669     0.12100
H1830       H  0.15291277  0.95376685  0.82272032     0.12100
C1831       C  0.00056157  0.00743215  0.87208375    -0.13900
C1832       C  0.00055829  0.00816724  0.88685124    -0.15500
C1833       C  0.23004500  0.76534906  0.74611731    -0.14000
C1834       C  0.25131965  0.74832931  0.73732288     0.08100
C1835       C  0.27213356  0.73037297  0.74589510    -0.14000
C1836       C  0.27138507  0.72908289  0.76300962    -0.14000
C1837       C  0.25052875  0.74656541  0.77179669     0.08100
C1838       C  0.23002303  0.76489989  0.76326240    -0.14000
H1839       H  0.21384296  0.77939026  0.73972836     0.12100
H1840       H  0.28862327  0.71695134  0.73933130     0.12100
H1841       H  0.28743310  0.71488122  0.76941134     0.12100
H1842       H  0.21369410  0.77845109  0.76986637     0.12100
C1843       C  0.25452860  0.75014086  0.63706321    -0.13900
C1844       C  0.25478218  0.75012121  0.62228839    -0.15500
C1845       C  0.22536673  0.85906338  0.68694141    -0.14000
C1846       C  0.25268981  0.84290167  0.68722129     0.08100
C1847       C  0.27999312  0.85901943  0.68757640    -0.14000
C1848       C  0.27998834  0.89056498  0.68761695    -0.14000
C1849       C  0.25267943  0.90673649  0.68731741     0.08100
C1850       C  0.22536137  0.89062741  0.68699612    -0.14000
H1851       H  0.20393157  0.84733187  0.68667251     0.12100
H1852       H  0.30143097  0.84726751  0.68780067     0.12100
H1853       H  0.30143399  0.90227751  0.68787480     0.12100
H1854       H  0.20393425  0.90239789  0.68675669     0.12100
C1855       C  0.22597045  0.60901833  0.68674228    -0.14000
C1856       C  0.25332465  0.59292193  0.68698769     0.08100
C1857       C  0.28060947  0.60907548  0.68724895    -0.14000
C1858       C  0.28053163  0.64062726  0.68720009    -0.14000
C1859       C  0.25316704  0.65671507  0.68690690     0.08100
C1860       C  0.22589202  0.64055273  0.68671166    -0.14000
H1861       H  0.20454831  0.59725678  0.68657358     0.12100
H1862       H  0.30206342  0.59735144  0.68746356     0.12100
H1863       H  0.30194320  0.65240654  0.68739081     0.12100
H1864       H  0.20442815  0.65225874  0.68651322     0.12100
C1865       C  0.26927647  0.98112338  0.74652642    -0.14000
C1866       C  0.25100680  0.00092879  0.73748475     0.08100
C1867       C  0.23233803  0.52146190  0.74578254    -0.14000
C1868       C  0.23239121  0.52256229  0.76292000    -0.14000
C1869       C  0.25028848  0.00239249  0.77197986     0.08100
C1870       C  0.26850907  0.98147581  0.76365889    -0.14000
H1871       H  0.28377949  0.96508957  0.74031960     0.12100
H1872       H  0.21820460  0.53702513  0.73899338     0.12100
H1873       H  0.21811764  0.53881973  0.76911054     0.12100
H1874       H  0.28258799  0.96582599  0.77042054     0.12100
C1875       C  0.25539684  0.99964834  0.62244242    -0.13900
C1876       C  0.25515199  0.99957831  0.63722171    -0.15500
C1877       C  0.47552859  0.76217056  0.74650692    -0.14000
C1878       C  0.49897056  0.74871534  0.73748551     0.08100
C1879       C  0.02282062  0.73464988  0.74589890    -0.14000
C1880       C  0.02290137  0.73353457  0.76302903    -0.14000
C1881       C  0.99967007  0.74731369  0.77198154     0.08100
C1882       C  0.47613574  0.76188440  0.76364579    -0.14000
H1883       H  0.45695502  0.77324034  0.74030340     0.12100
H1884       H  0.04109333  0.72402855  0.73922118     0.12100
H1885       H  0.04127189  0.72226813  0.76931192     0.12100
H1886       H  0.45797735  0.77253521  0.77040665     0.12100
C1887       C  0.49547309  0.75047222  0.62236726    -0.13900
C1888       C  0.49586278  0.75045689  0.63714208    -0.15500
C1889       C  0.02644745  0.89055153  0.68666015    -0.14000
C1890       C  0.49914665  0.90666957  0.68764251     0.08100
C1891       C  0.47195420  0.89051399  0.68883960    -0.14000
C1892       C  0.47196302  0.85901505  0.68885184    -0.14000
C1893       C  0.49916490  0.84284319  0.68766669     0.08100
C1894       C  0.02645630  0.85894401  0.68667178    -0.14000
H1895       H  0.04779280  0.90234265  0.68576914     0.12100
H1896       H  0.45054129  0.90220753  0.68971723     0.12100
H1897       H  0.45055643  0.84733477  0.68973717     0.12100
H1898       H  0.04780790  0.84713948  0.68578790     0.12100
C1899       C  0.46849716  0.60898144  0.68522140    -0.14000
C1900       C  0.49565987  0.59285439  0.68696804     0.08100
C1901       C  0.02273631  0.60898490  0.68882468    -0.14000
C1902       C  0.02274983  0.64048274  0.68881472    -0.14000
C1903       C  0.49568706  0.65666527  0.68695079     0.08100
C1904       C  0.46851054  0.64058964  0.68521238    -0.14000
H1905       H  0.44725685  0.59719205  0.68376227     0.12100
H1906       H  0.04401939  0.59726638  0.69032037     0.12100
H1907       H  0.04404354  0.65216116  0.69030515     0.12100
H1908       H  0.44728087  0.65241910  0.68374860     0.12100
C1909       C  0.02305845  0.51421649  0.74586582    -0.14000
C1910       C  0.49889365  0.00070644  0.73746251     0.08100
C1911       C  0.47520414  0.98772502  0.74649489    -0.14000
C1912       C  0.47586062  0.98793981  0.76363045    -0.14000
C1913       C  0.49971462  0.00196181  0.77195039     0.08100
C1914       C  0.02321410  0.51525403  0.76299395    -0.14000
H1915       H  0.04154733  0.52443481  0.73918415     0.12100
H1916       H  0.45639640  0.97706246  0.74030403     0.12100
H1917       H  0.45751493  0.97764872  0.77040202     0.12100
H1918       H  0.04184902  0.52606113  0.76927117     0.12100
C1919       C  0.99538277  0.99952736  0.62234267    -0.13900
C1920       C  0.99582447  0.99940796  0.63711834    -0.15500
O1921       O  0.97154832  0.99915944  0.66262618    -0.73600
O1922       O  0.97310915  0.99920133  0.71182916    -0.74600
O1923       O  0.97124394  0.04464974  0.68716335    -0.63200
O1924       O  0.97350050  0.45405317  0.68734686    -0.71600
O1925       O  0.52354122  0.45489490  0.68710783    -0.71200
O1926       O  0.52127944  0.04547819  0.68655511    -0.62400
O1927       O  0.52316375  0.50102974  0.71137930    -0.74900
O1928       O  0.52170252  0.49977496  0.66216861    -0.73700
Cu1929     Cu  0.97060589  0.99922181  0.68724674     1.04600
Cu1930     Cu  0.52416854  0.50032076  0.68677314     1.04300
C1931       C  0.49638556  0.99942217  0.65470382     0.92600
C1932       C  0.99836641  0.50026724  0.71937560     0.91700
C1933       C  0.49601938  0.05943047  0.68687604     0.83900
C1934       C  0.49877069  0.44010256  0.68735496     0.90100
O1935       O  0.97319726  0.25028117  0.71185515    -0.73600
O1936       O  0.97157550  0.25049928  0.66264964    -0.74600
O1937       O  0.97130198  0.20490465  0.68716585    -0.63200
O1938       O  0.97353894  0.29548649  0.68738660    -0.71600
O1939       O  0.52358034  0.29459771  0.68714318    -0.71200
O1940       O  0.52133643  0.20400568  0.68653310    -0.62400
O1941       O  0.52172983  0.24983525  0.66218673    -0.74900
O1942       O  0.52325134  0.24835580  0.71139851    -0.73700
Cu1943     Cu  0.97066014  0.25033268  0.68727143     1.04600
Cu1944     Cu  0.52422280  0.24916747  0.68678559     1.04300
C1945       C  0.99845725  0.24916393  0.71939800     0.92600
C1946       C  0.99641228  0.25027617  0.65472546     0.91700
C1947       C  0.99607103  0.19008839  0.68685956     0.83900
C1948       C  0.99880484  0.30941235  0.68739088     0.90100
O1949       O  0.72906837  0.49933275  0.66219960    -0.73600
O1950       O  0.72695024  0.50124123  0.71141690    -0.74600
O1951       O  0.72824573  0.04527190  0.68639429    -0.63200
O1952       O  0.72781542  0.45471295  0.68723629    -0.71600
O1953       O  0.77786511  0.45439735  0.68726860    -0.71200
O1954       O  0.77825164  0.04500870  0.68758517    -0.62400
O1955       O  0.77702826  0.49911662  0.71202169    -0.74900
O1956       O  0.77921605  0.49994705  0.66280602    -0.73700
Cu1957     Cu  0.72627204  0.50011181  0.68678611     1.04600
Cu1958     Cu  0.77984255  0.49961882  0.68744123     1.04300
C1959       C  0.75446153  0.49960341  0.65480832     0.92600
C1960       C  0.75167904  0.50037661  0.71946002     0.91700
C1961       C  0.75330008  0.05950513  0.68698476     0.83900
C1962       C  0.75276961  0.44017883  0.68728246     0.90100
O1963       O  0.77808597  0.20448909  0.68681010    -0.73600
O1964       O  0.77773777  0.29505466  0.68756480    -0.74600
O1965       O  0.77709331  0.24861072  0.71174980    -0.63200
O1966       O  0.77881289  0.25042058  0.66257187    -0.71600
O1967       O  0.72866011  0.24964333  0.66209945    -0.71200
O1968       O  0.72700236  0.25023137  0.71131711    -0.62400
O1969       O  0.72771975  0.29511425  0.68659082    -0.74900
O1970       O  0.72803136  0.20450314  0.68684751    -0.73700
Cu1971     Cu  0.77967799  0.24969044  0.68718803     1.04600
Cu1972     Cu  0.72610007  0.24986088  0.68668988     1.04300
C1973       C  0.75307903  0.19013061  0.68684226     0.92600
C1974       C  0.75272112  0.30946022  0.68712469     0.91700
C1975       C  0.75181178  0.24916201  0.71928286     0.83900
C1976       C  0.75398524  0.25007836  0.65464423     0.90100
O1977       O  0.95547095  0.03102528  0.82166827    -0.73600
O1978       O  0.54602950  0.02822544  0.82206002    -0.74600
O1979       O  0.50146929  0.02829471  0.79724972    -0.63200
O1980       O  0.00060077  0.03107754  0.84641468    -0.71600
O1981       O  0.00012079  0.48094305  0.84723911    -0.71200
O1982       O  0.49870535  0.47824946  0.79804243    -0.62400
O1983       O  0.54498159  0.47819640  0.82238408    -0.74900
O1984       O  0.95439489  0.48104484  0.82287206    -0.73700
Cu1985     Cu  0.50093525  0.03139986  0.82181375     1.04600
Cu1986     Cu  0.99951203  0.47785177  0.82266412     1.04300
C1987       C  0.94056672  0.50635287  0.82225568     0.92600
C1988       C  0.55987796  0.50290959  0.82226399     0.91700
C1989       C  0.99999938  0.50287324  0.78992779     0.83900
C1990       C  0.50043446  0.50644037  0.85451334     0.90100
O1991       O  0.95468176  0.26910128  0.82311479    -0.73600
O1992       O  0.54530154  0.26955725  0.82236012    -0.74600
O1993       O  0.49889232  0.27086410  0.79812307    -0.63200
O1994       O  0.50058205  0.26792893  0.84733204    -0.71600
O1995       O  0.49997504  0.21780162  0.84647992    -0.71200
O1996       O  0.50101740  0.22078796  0.79725704    -0.62400
O1997       O  0.54556766  0.21951345  0.82205182    -0.74900
O1998       O  0.95500672  0.21912873  0.82162644    -0.73700
Cu1999     Cu  0.49988300  0.27111679  0.82276199     1.04600
Cu2000     Cu  0.50038133  0.21756024  0.82182542     1.04300
C2001       C  0.94047707  0.24403935  0.82238302     0.92600
C2002       C  0.55980745  0.24458685  0.82218236     0.91700
C2003       C  0.49987866  0.24628293  0.78996724     0.83900
C2004       C  0.50030513  0.24241617  0.85460204     0.90100
O2005       O  0.74876658  0.02861242  0.79743297    -0.73600
O2006       O  0.75005324  0.03100859  0.84662333    -0.74600
O2007       O  0.79496554  0.03113921  0.82176584    -0.63200
O2008       O  0.70438387  0.02832908  0.82236189    -0.71600
O2009       O  0.70550789  0.47830009  0.82262205    -0.71200
O2010       O  0.79606668  0.48114941  0.82283368    -0.62400
O2011       O  0.75064479  0.48087056  0.84735344    -0.74900
O2012       O  0.75145704  0.47859079  0.79813423    -0.73700
Cu2013     Cu  0.74949381  0.03151690  0.82201912     1.04600
Cu2014     Cu  0.75096029  0.47797767  0.82276277     1.04300
C2015       C  0.75011895  0.50324438  0.79002978     0.92600
C2016       C  0.75037985  0.50632159  0.85467748     0.91700
C2017       C  0.80988427  0.50644916  0.82226293     0.83900
C2018       C  0.69057444  0.50300289  0.82253072     0.90100
O2019       O  0.70486896  0.26928138  0.82274708    -0.73600
O2020       O  0.79543442  0.26896300  0.82229253    -0.74600
O2021       O  0.74937543  0.27036539  0.79789597    -0.63200
O2022       O  0.75052192  0.26794072  0.84710439    -0.71600
O2023       O  0.74978214  0.21780514  0.84639378    -0.71200
O2024       O  0.75106508  0.22027567  0.79718655    -0.62400
O2025       O  0.79550403  0.21891342  0.82202287    -0.81300
O2026       O  0.70488309  0.21928719  0.82151000    -0.73700
Cu2027     Cu  0.75007946  0.27088397  0.82253128     1.04600
Cu2028     Cu  0.75027245  0.21731619  0.82175290     1.04300
C2029       C  0.69050328  0.24430772  0.82212753     0.92600
C2030       C  0.80983470  0.24393602  0.82217720     0.91700
C2031       C  0.75026714  0.24570000  0.78980673     0.83900
C2032       C  0.75014767  0.24249741  0.85444300     0.90100
O2033       O  0.97202801  0.50155014  0.29751365    -0.73600
O2034       O  0.97142109  0.49950917  0.34670384    -0.74600
O2035       O  0.97183991  0.04560644  0.32256158    -0.63200
O2036       O  0.97175344  0.45498995  0.32165840    -0.71600
O2037       O  0.52179114  0.45482669  0.32235076    -0.71200
O2038       O  0.52188852  0.04538474  0.32220730    -0.62400
O2039       O  0.52158451  0.50014698  0.34689158    -0.74900
O2040       O  0.52212912  0.49964737  0.29769779    -0.73700
Cu2041     Cu  0.97000425  0.50038406  0.32210401     1.04600
Cu2042     Cu  0.52359470  0.50001487  0.32229405     1.04300
C2043       C  0.99718428  0.50077378  0.28986801     0.92600
C2044       C  0.49640302  0.49973804  0.35448765     0.91700
C2045       C  0.99691045  0.05986660  0.32242475     0.83900
C2046       C  0.99675494  0.44053983  0.32194819     0.90100
O2047       O  0.52209925  0.20485513  0.32271908    -0.73600
O2048       O  0.52207048  0.29547055  0.32198931    -0.74600
O2049       O  0.52161283  0.25075068  0.34697279    -0.63200
O2050       O  0.52262729  0.24923130  0.29778834    -0.71600
O2051       O  0.97254916  0.25070478  0.29743314    -0.71200
O2052       O  0.97145391  0.25012955  0.34663445    -0.62400
O2053       O  0.97201945  0.29554792  0.32212586    -0.74900
O2054       O  0.97206861  0.20498230  0.32194387    -0.73700
Cu2055     Cu  0.52385490  0.25010367  0.32237918     1.04600
Cu2056     Cu  0.97027858  0.25033094  0.32202452     1.04300
C2057       C  0.49706300  0.19054686  0.32236342     0.92600
C2058       C  0.49704504  0.30987899  0.32200830     0.91700
C2059       C  0.49635243  0.25049621  0.35449504     0.83900
C2060       C  0.49777235  0.24981732  0.28984734     0.90100
O2061       O  0.77774146  0.04564369  0.32279178    -0.73600
O2062       O  0.77814785  0.45506248  0.32167452    -0.74600
O2063       O  0.77748816  0.50182988  0.29768277    -0.63200
O2064       O  0.77853809  0.49941686  0.34683241    -0.71600
O2065       O  0.72837366  0.50009584  0.34715577    -0.71200
O2066       O  0.72737933  0.49972073  0.29796879    -0.62400
O2067       O  0.72812271  0.45481334  0.32258417    -0.74900
O2068       O  0.72769013  0.04540180  0.32250457    -0.73700
Cu2069     Cu  0.77973114  0.50045766  0.32224134     1.04600
Cu2070     Cu  0.72613655  0.50000964  0.32257073     1.04300
C2071       C  0.75265111  0.05989246  0.32268116     0.92600
C2072       C  0.75319226  0.44056772  0.32201763     0.91700
C2073       C  0.75227724  0.50102914  0.29010799     0.83900
C2074       C  0.75362363  0.49966226  0.35467948     0.90100
O2075       O  0.72726162  0.24891965  0.29778064    -0.73600
O2076       O  0.72834951  0.25108886  0.34692001    -0.74600
O2077       O  0.72803369  0.29552824  0.32180399    -0.63200
O2078       O  0.72771022  0.20494445  0.32283863    -0.71600
O2079       O  0.77773711  0.20492699  0.32193671    -0.71200
O2080       O  0.77808649  0.29552149  0.32200244    -0.62400
O2081       O  0.77850777  0.25017988  0.34659266    -0.74900
O2082       O  0.77737265  0.25065720  0.29739675    -0.73700
Cu2083     Cu  0.72608988  0.25016489  0.32234975     1.04600
Cu2084     Cu  0.77968194  0.25029713  0.32197405     1.04300
C2085       C  0.75212297  0.24957901  0.28986253     0.92600
C2086       C  0.75359525  0.25072939  0.35444530     0.91700
C2087       C  0.75307257  0.30989448  0.32181007     0.83900
C2088       C  0.75271336  0.19056507  0.32243665     0.90100
O2089       O  0.51976576  0.50027162  0.46138097    -0.73600
O2090       O  0.52058374  0.49993645  0.41221738    -0.74600
O2091       O  0.52008815  0.04545526  0.43672066    -0.63200
O2092       O  0.52011431  0.45480747  0.43693318    -0.71600
O2093       O  0.97006505  0.45488828  0.43678067    -0.71200
O2094       O  0.97004156  0.04542177  0.43647453    -0.62400
O2095       O  0.97041790  0.49988203  0.41199946    -0.74900
O2096       O  0.96972120  0.50040484  0.46121487    -0.73700
Cu2097     Cu  0.52188533  0.50012230  0.43681612     1.04600
Cu2098     Cu  0.96832023  0.50015246  0.43660387     1.04300
C2099       C  0.49465618  0.50037366  0.46910000     0.92600
C2100       C  0.49562066  0.49982399  0.40441806     0.91700
C2101       C  0.49504094  0.05981147  0.43659412     0.83900
C2102       C  0.49506877  0.44047917  0.43692519     0.90100
O2103       O  0.52013499  0.25043765  0.41224515    -0.73600
O2104       O  0.51928344  0.24979018  0.46140580    -0.74600
O2105       O  0.51967558  0.20486656  0.43670139    -0.63200
O2106       O  0.51969991  0.29540307  0.43700590    -0.71600
O2107       O  0.96965269  0.29550921  0.43673797    -0.71200
O2108       O  0.96962710  0.20486510  0.43655938    -0.62400
O2109       O  0.96923855  0.25003691  0.46124881    -0.74900
O2110       O  0.96997086  0.25038534  0.41200841    -0.73700
Cu2111     Cu  0.52142915  0.25012709  0.43684352     1.04600
Cu2112     Cu  0.96786504  0.25020009  0.43662480     1.04300
C2113       C  0.49518422  0.25047860  0.40443426     0.92600
C2114       C  0.49417914  0.24982769  0.46913002     0.91700
C2115       C  0.49466624  0.19049360  0.43662671     0.83900
C2116       C  0.49470127  0.30982549  0.43693637     0.90100
O2117       O  0.77935649  0.50038845  0.46142960    -0.73600
O2118       O  0.77949255  0.49982886  0.41224396    -0.74600
O2119       O  0.77968861  0.04539548  0.43666914    -0.63200
O2120       O  0.77923050  0.45484037  0.43699090    -0.71600
O2121       O  0.72917991  0.45497447  0.43704527    -0.71200
O2122       O  0.72963859  0.04560811  0.43673008    -0.62400
O2123       O  0.72932128  0.50003250  0.41229139    -0.74900
O2124       O  0.72930901  0.50055223  0.46143584    -0.73700
Cu2125     Cu  0.78118742  0.50010351  0.43683647     1.04600
Cu2126     Cu  0.72761725  0.50030694  0.43687143     1.04300
C2127       C  0.75432597  0.50053465  0.46923164     0.92600
C2128       C  0.75438092  0.49983576  0.40458265     0.91700
C2129       C  0.75472329  0.05987185  0.43665738     0.83900
C2130       C  0.75417753  0.44053717  0.43706823     0.90100
O2131       O  0.77949530  0.25060943  0.41198882    -0.73600
O2132       O  0.77990145  0.24995587  0.46120501    -0.74600
O2133       O  0.77991349  0.20495882  0.43642645    -0.63200
O2134       O  0.77943462  0.29557436  0.43675612    -0.71600
O2135       O  0.72938699  0.29541901  0.43699098    -0.71200
O2136       O  0.72986396  0.20484974  0.43654114    -0.62400
O2137       O  0.72985748  0.24964960  0.46131008    -0.74900
O2138       O  0.72932859  0.25054933  0.41214065    -0.73700
Cu2139     Cu  0.78143690  0.25028537  0.43658683     1.04600
Cu2140     Cu  0.72787146  0.25010938  0.43674542     1.04300
C2141       C  0.75433459  0.25068330  0.40437436     0.92600
C2142       C  0.75492841  0.24967938  0.46906009     0.91700
C2143       C  0.75492652  0.19053446  0.43645712     0.83900
C2144       C  0.75435723  0.30986743  0.43694694     0.90100
O2145       O  0.54539839  0.48329383  0.07234819    -0.73600
O2146       O  0.95482151  0.48358752  0.07249803    -0.74600
O2147       O  0.00000081  0.48368072  0.04783360    -0.63200
O2148       O  0.00026903  0.48328731  0.09707166    -0.71600
O2149       O  0.00038460  0.03344178  0.09712629    -0.71200
O2150       O  0.00000889  0.03371599  0.04794686    -0.62400
O2151       O  0.95487340  0.03362616  0.07259607    -0.74900
O2152       O  0.54547792  0.03333367  0.07240108    -0.73700
Cu2153     Cu  0.00011002  0.48171152  0.07244145     1.04600
Cu2154     Cu  0.50018791  0.03526597  0.07252786     1.04300
C2155       C  0.55980683  0.50828124  0.07231446     0.92600
C2156       C  0.94047447  0.50863046  0.07252092     0.91700
C2157       C  0.99998765  0.50877617  0.04008578     0.83900
C2158       C  0.00040954  0.50833785  0.10479345     0.90100
O2159       O  0.49966520  0.26631248  0.04796703    -0.73600
O2160       O  0.50016113  0.26678617  0.09714928    -0.74600
O2161       O  0.54525811  0.26698528  0.07240210    -0.63200
O2162       O  0.95466510  0.26611284  0.07266185    -0.71600
O2163       O  0.95500134  0.21606937  0.07274261    -0.71200
O2164       O  0.54558258  0.21694315  0.07261128    -0.62400
O2165       O  0.50043225  0.21662278  0.09728284    -0.74900
O2166       O  0.50024686  0.21627281  0.04811150    -0.73700
Cu2167     Cu  0.49991833  0.26829781  0.07254684     1.04600
Cu2168     Cu  0.50033445  0.21473613  0.07269767     1.04300
C2169       C  0.49990583  0.24122082  0.04023995     0.92600
C2170       C  0.50034915  0.24176288  0.10490299     0.91700
C2171       C  0.55979092  0.24204963  0.07244081     0.83900
C2172       C  0.94046263  0.24100190  0.07269507     0.90100
O2173       O  0.74995908  0.03378746  0.04812766    -0.73600
O2174       O  0.75006563  0.03337730  0.09732126    -0.74600
O2175       O  0.79535874  0.03363761  0.07265122    -0.63200
O2176       O  0.70475240  0.03333913  0.07269639    -0.71600
O2177       O  0.70490919  0.48329830  0.07252010    -0.71200
O2178       O  0.79548332  0.48359639  0.07260735    -0.62400
O2179       O  0.75011425  0.48322220  0.09722275    -0.74900
O2180       O  0.75031051  0.48375062  0.04798445    -0.73700
Cu2181     Cu  0.75003150  0.03527349  0.07271379     1.04600
Cu2182     Cu  0.75021285  0.48171791  0.07258855     1.04300
C2183       C  0.75012653  0.50886182  0.04025265     0.92600
C2184       C  0.75005997  0.50824698  0.10496931     0.91700
C2185       C  0.80979269  0.50864266  0.07257746     0.83900
C2186       C  0.69046161  0.50828118  0.07253849     0.90100
O2187       O  0.79553431  0.26602297  0.07251391    -0.73600
O2188       O  0.70496507  0.26687467  0.07233326    -0.74600
O2189       O  0.75009574  0.26683621  0.09705292    -0.63200
O2190       O  0.75040143  0.26607983  0.04785245    -0.71600
O2191       O  0.75021057  0.21604412  0.04802338    -0.71200
O2192       O  0.74976567  0.21668060  0.09726561    -0.62400
O2193       O  0.70469772  0.21683281  0.07251205    -0.74900
O2194       O  0.79530413  0.21598191  0.07274998    -0.73700
Cu2195     Cu  0.75027247  0.26819171  0.07243494     1.04600
Cu2196     Cu  0.74997594  0.21463684  0.07265095     1.04300
C2197       C  0.80979063  0.24092718  0.07263363     0.92600
C2198       C  0.69046090  0.24194370  0.07236190     0.91700
C2199       C  0.74987306  0.24186242  0.10485453     0.83900
C2200       C  0.75033400  0.24098067  0.04013081     0.90100
O2201       O  0.00021557  0.48195352  0.16208449    -0.73600
O2202       O  0.00076798  0.47951362  0.21124364    -0.74600
O2203       O  0.95501856  0.48065093  0.18673118    -0.63200
O2204       O  0.54564467  0.48103060  0.18652675    -0.71600
O2205       O  0.54532534  0.03101378  0.18793102    -0.71200
O2206       O  0.95476118  0.03070161  0.18692169    -0.62400
O2207       O  0.99868910  0.02957705  0.21199895    -0.74900
O2208       O  0.00087385  0.03209395  0.16278056    -0.73700
Cu2209     Cu  0.00041242  0.47904268  0.18662606     1.04600
Cu2210     Cu  0.99994257  0.03260269  0.18743272     1.04300
C2211       C  0.00061789  0.00738044  0.15474198     0.92600
C2212       C  0.99947837  0.50412637  0.21936395     0.91700
C2213       C  0.94052279  0.00562730  0.18677575     0.83900
C2214       C  0.55985550  0.00609558  0.18726133     0.90100
O2215       O  0.50054366  0.26855420  0.16209200    -0.73600
O2216       O  0.49869317  0.27131141  0.21121448    -0.74600
O2217       O  0.54518345  0.26999552  0.18703930    -0.63200
O2218       O  0.95458104  0.26968151  0.18626151    -0.71600
O2219       O  0.95485442  0.21967977  0.18750118    -0.71200
O2220       O  0.54543997  0.21995109  0.18745147    -0.62400
O2221       O  0.50050945  0.22121285  0.21205888    -0.74900
O2222       O  0.50013937  0.21840905  0.16288315    -0.73700
Cu2223     Cu  0.49977772  0.27163448  0.18662191     1.04600
Cu2224     Cu  0.50022649  0.21805742  0.18750457     1.04300
C2225       C  0.50040912  0.24308307  0.15480524     0.92600
C2226       C  0.49942382  0.24669443  0.21934997     0.91700
C2227       C  0.55968404  0.24502477  0.18728284     0.83900
C2228       C  0.94035339  0.24461714  0.18684141     0.90100
O2229       O  0.75129048  0.02982648  0.21216376    -0.73600
O2230       O  0.74970460  0.03200970  0.16293296    -0.74600
O2231       O  0.70500471  0.03109300  0.18795902    -0.63200
O2232       O  0.79559783  0.03075124  0.18719430    -0.71600
O2233       O  0.79540058  0.48070486  0.18696304    -0.71200
O2234       O  0.70479252  0.48109235  0.18677435    -0.62400
O2235       O  0.75023248  0.48186649  0.16231768    -0.74900
O2236       O  0.74967758  0.47977110  0.21149691    -0.73700
Cu2237     Cu  0.75037995  0.03267356  0.18758616     1.04600
Cu2238     Cu  0.75002903  0.47911668  0.18687499     1.04300
C2239       C  0.75061814  0.50443316  0.21959497     0.92600
C2240       C  0.74993288  0.00725553  0.15493148     0.91700
C2241       C  0.69052893  0.50615245  0.18738011     0.83900
C2242       C  0.80986757  0.50567460  0.18701089     0.90100
O2243       O  0.70464929  0.21988146  0.18740502    -0.73600
O2244       O  0.79525193  0.21962125  0.18750554    -0.74600
O2245       O  0.74954273  0.22094634  0.21203764    -0.63200
O2246       O  0.75002322  0.21853294  0.16283926    -0.71600
O2247       O  0.74966506  0.26867782  0.16214327    -0.71200
O2248       O  0.75109953  0.27102702  0.21129118    -0.62400
O2249       O  0.79544548  0.26963368  0.18643595    -0.74900
O2250       O  0.70485466  0.26992521  0.18702825    -0.73700
Cu2251     Cu  0.74987764  0.21799100  0.18747314     1.04600
Cu2252     Cu  0.75024047  0.27156014  0.18669996     1.04300
C2253       C  0.69037997  0.24495882  0.18725028     0.92600
C2254       C  0.80971498  0.24457286  0.18694049     0.91700
C2255       C  0.75045708  0.24637091  0.21940523     0.83900
C2256       C  0.74980037  0.24325521  0.15480090     0.90100
O2257       O  0.50023824  0.03379943  0.91198416    -0.73600
O2258       O  0.49981351  0.03437244  0.96126768    -0.74600
O2259       O  0.54531010  0.03443915  0.93669570    -0.63200
O2260       O  0.95472977  0.03385053  0.93649480    -0.71600
O2261       O  0.95493855  0.48380389  0.93677293    -0.71200
O2262       O  0.54554396  0.48438526  0.93687793    -0.62400
O2263       O  0.50016446  0.48432959  0.96136848    -0.74900
O2264       O  0.50041461  0.48363314  0.91225043    -0.73700
Cu2265     Cu  0.50000348  0.03587425  0.93660714     1.04600
Cu2266     Cu  0.50027438  0.48230851  0.93682533     1.04300
C2267       C  0.50041028  0.50857077  0.90442777     0.92600
C2268       C  0.49997069  0.50937816  0.96912335     0.91700
C2269       C  0.55979551  0.50947030  0.93677833     0.83900
C2270       C  0.94046196  0.50877412  0.93661472     0.90100
O2271       O  0.50007770  0.21574847  0.91225671    -0.73600
O2272       O  0.50003027  0.21572048  0.96151050    -0.74600
O2273       O  0.95472968  0.21598748  0.93688154    -0.63200
O2274       O  0.54534002  0.21553669  0.93691331    -0.71600
O2275       O  0.54542199  0.26558013  0.93698707    -0.71200
O2276       O  0.95485439  0.26603093  0.93683998    -0.62400
O2277       O  0.49994849  0.26576084  0.96148834    -0.74900
O2278       O  0.50029219  0.26590363  0.91229234    -0.73700
Cu2279     Cu  0.50003188  0.21399762  0.93689066     1.04600
Cu2280     Cu  0.50014301  0.26755488  0.93690237     1.04300
C2281       C  0.50022073  0.24085530  0.90457532     0.92600
C2282       C  0.49994593  0.24074829  0.96930304     0.91700
C2283       C  0.94042082  0.24105831  0.93685447     0.83900
C2284       C  0.55975155  0.24052558  0.93696362     0.90100
O2285       O  0.75013617  0.48354079  0.91244988    -0.73600
O2286       O  0.74998939  0.48442503  0.96155902    -0.74600
O2287       O  0.70474432  0.48437978  0.93696632    -0.63200
O2288       O  0.79535020  0.48383080  0.93706496    -0.71600
O2289       O  0.79548043  0.03387813  0.93683088    -0.71200
O2290       O  0.70490013  0.03442947  0.93665091    -0.62400
O2291       O  0.74999272  0.03446821  0.96142529    -0.74900
O2292       O  0.75037503  0.03370417  0.91213080    -0.73700
Cu2293     Cu  0.75003664  0.48231695  0.93702306     1.04600
Cu2294     Cu  0.75019851  0.03588095  0.93675658     1.04300
C2295       C  0.75030326  0.50844729  0.90459992     0.92600
C2296       C  0.74998250  0.50949108  0.96929650     0.91700
C2297       C  0.69045165  0.50945808  0.93676742     0.83900
C2298       C  0.80978537  0.50880686  0.93692907     0.90100
O2299       O  0.75029637  0.21579511  0.96131562    -0.73600
O2300       O  0.75010673  0.21599977  0.91206359    -0.74600
O2301       O  0.79545980  0.21614782  0.93664450    -0.63200
O2302       O  0.70488997  0.21568778  0.93675311    -0.71600
O2303       O  0.70468628  0.26573104  0.93677356    -0.71200
O2304       O  0.79529396  0.26619058  0.93675065    -0.62400
O2305       O  0.74996712  0.26615636  0.91214026    -0.74900
O2306       O  0.74997428  0.26582995  0.96135215    -0.73700
Cu2307     Cu  0.75019667  0.21416458  0.93668963     1.04600
Cu2308     Cu  0.74996753  0.26772005  0.93675386     1.04300
C2309       C  0.75015596  0.24078651  0.96914267     0.92600
C2310       C  0.75003989  0.24112770  0.90440454     0.91700
C2311       C  0.80974815  0.24120779  0.93670185     0.83900
C2312       C  0.69041756  0.24065666  0.93679035     0.90100
O2313       O  0.51944877  0.50012406  0.54781445    -0.73600
O2314       O  0.52008361  0.49985132  0.59697482    -0.74600
O2315       O  0.51975389  0.45469955  0.57235056    -0.63200
O2316       O  0.51965399  0.04529874  0.57247271    -0.71600
O2317       O  0.96960620  0.04528894  0.57266600    -0.71200
O2318       O  0.96970493  0.45470144  0.57240861    -0.62400
O2319       O  0.96991890  0.49973404  0.59715639    -0.74900
O2320       O  0.96940660  0.50025836  0.54790488    -0.73700
Cu2321     Cu  0.52147009  0.49999846  0.57238948     1.04600
Cu2322     Cu  0.96790667  0.49999559  0.57253585     1.04300
C2323       C  0.49438595  0.50024047  0.54005416     0.92600
C2324       C  0.49510275  0.49971299  0.60475809     0.91700
C2325       C  0.49473653  0.44032934  0.57237996     0.83900
C2326       C  0.49461825  0.05966408  0.57263597     0.90100
O2327       O  0.51932015  0.24959627  0.54781257    -0.73600
O2328       O  0.52014735  0.25025652  0.59698611    -0.74600
O2329       O  0.51964287  0.20465683  0.57260157    -0.63200
O2330       O  0.51975517  0.29524915  0.57223844    -0.71600
O2331       O  0.96970747  0.29532619  0.57245150    -0.71200
O2332       O  0.96959467  0.20473706  0.57273915    -0.62400
O2333       O  0.96998210  0.25027505  0.59720248    -0.74900
O2334       O  0.96927748  0.24983518  0.54797029    -0.73700
Cu2335     Cu  0.52145655  0.24993786  0.57239399     1.04600
Cu2336     Cu  0.96789274  0.25004409  0.57259516     1.04300
C2337       C  0.49421711  0.24964072  0.54008642     0.92600
C2338       C  0.49518044  0.25034454  0.60478556     0.91700
C2339       C  0.49460504  0.19032685  0.57274469     0.83900
C2340       C  0.49474385  0.30965868  0.57233448     0.90100
O2341       O  0.78026178  0.49969672  0.59707914    -0.73600
O2342       O  0.77956632  0.50022922  0.54788958    -0.74600
O2343       O  0.77984077  0.04524729  0.57257565    -0.63200
O2344       O  0.77993052  0.45464876  0.57232019    -0.71600
O2345       O  0.72988306  0.45463860  0.57268549    -0.71200
O2346       O  0.72979123  0.04523758  0.57258020    -0.62400
O2347       O  0.72952252  0.49993139  0.54802893    -0.74900
O2348       O  0.73009823  0.49995514  0.59723734    -0.73700
Cu2349     Cu  0.78164221  0.49995395  0.57245985     1.04600
Cu2350     Cu  0.72807781  0.49993754  0.57264020     1.04300
C2351       C  0.75525976  0.49977292  0.60485269     0.92600
C2352       C  0.75447403  0.50016370  0.54015752     0.91700
C2353       C  0.75480519  0.05961315  0.57256677     0.83900
C2354       C  0.75491748  0.44027445  0.57249767     0.90100
O2355       O  0.77991358  0.24976319  0.54782064    -0.73600
O2356       O  0.77991966  0.25007652  0.59701895    -0.74600
O2357       O  0.77981685  0.20462409  0.57250491    -0.63200
O2358       O  0.77992623  0.29522136  0.57230065    -0.71600
O2359       O  0.72987434  0.29527420  0.57243764    -0.71200
O2360       O  0.72976745  0.20467463  0.57240913    -0.62400
O2361       O  0.72975271  0.24996830  0.59701006    -0.74900
O2362       O  0.72986884  0.24992407  0.54780704    -0.73700
Cu2363     Cu  0.78163639  0.24991959  0.57241111     1.04600
Cu2364     Cu  0.72806963  0.24996933  0.57241231     1.04300
C2365       C  0.75490427  0.24976601  0.54001012     0.92600
C2366       C  0.75482864  0.25005393  0.60470609     0.91700
C2367       C  0.75478390  0.19027894  0.57246457     0.83900
C2368       C  0.75490877  0.30961654  0.57238043     0.90100
C2369       C  0.72782508  0.39072885  0.57433216    -0.14000
C2370       C  0.75493475  0.40684929  0.57249587     0.08100
C2371       C  0.78205094  0.39071122  0.57066126    -0.14000
C2372       C  0.78204707  0.35915831  0.57063105    -0.14000
C2373       C  0.75492609  0.34304069  0.57242978     0.08100
C2374       C  0.72782056  0.35917969  0.57429822    -0.14000
H2375       H  0.70656567  0.40248516  0.57583849     0.12100
H2376       H  0.80331360  0.40245613  0.56918642     0.12100
H2377       H  0.80330619  0.34739726  0.56913444     0.12100
H2378       H  0.70655922  0.34743688  0.57578300     0.12100
C2379       C  0.72748241  0.10917929  0.57191091    -0.14000
C2380       C  0.75478593  0.09304059  0.57253635     0.08100
C2381       C  0.78208029  0.10916463  0.57312422    -0.14000
C2382       C  0.78207352  0.14071076  0.57310011    -0.14000
C2383       C  0.75477341  0.15685187  0.57248386     0.08100
C2384       C  0.72747572  0.14073039  0.57188526    -0.14000
H2385       H  0.70606493  0.09743988  0.57142325     0.12100
H2386       H  0.80350498  0.09741744  0.57362573     0.12100
H2387       H  0.80349398  0.15244502  0.57358394     0.12100
H2388       H  0.70605371  0.15248251  0.57138028     0.12100
C2389       C  0.52205188  0.39075558  0.57297190    -0.14000
C2390       C  0.49474809  0.40690068  0.57239706     0.08100
C2391       C  0.96744815  0.39078131  0.57184886    -0.14000
C2392       C  0.96745352  0.35923433  0.57182661    -0.14000
C2393       C  0.49475781  0.34308718  0.57235249     0.08100
C2394       C  0.52205732  0.35920390  0.57294720    -0.14000
H2395       H  0.54347269  0.40249077  0.57344741     0.12100
H2396       H  0.94602136  0.40253245  0.57140578     0.12100
H2397       H  0.94602854  0.34750391  0.57137008     0.12100
H2398       H  0.54347955  0.34744715  0.57340982     0.12100
C2399       C  0.52191174  0.10920923  0.57298764    -0.14000
C2400       C  0.49459588  0.09309010  0.57280286     0.08100
C2401       C  0.96726956  0.10923296  0.57277114    -0.14000
C2402       C  0.96726532  0.14078397  0.57281544    -0.14000
C2403       C  0.49458696  0.15690050  0.57288919     0.08100
C2404       C  0.52190737  0.14075434  0.57303294    -0.14000
H2405       H  0.54335437  0.09745953  0.57306320     0.12100
H2406       H  0.94583149  0.09749825  0.57266421     0.12100
H2407       H  0.94582571  0.15253943  0.57273533     0.12100
H2408       H  0.54334854  0.15248356  0.57313525     0.12100
C2409       C  0.89083822  0.21387051  0.93658747    -0.14000
C2410       C  0.90699200  0.24115627  0.93682541     0.08100
C2411       C  0.89088173  0.26850262  0.93701750    -0.14000
C2412       C  0.85932010  0.26854654  0.93696828    -0.14000
C2413       C  0.84317714  0.24124411  0.93672678     0.08100
C2414       C  0.85929850  0.21391443  0.93653598    -0.14000
H2415       H  0.90255736  0.19241474  0.93643025     0.12100
H2416       H  0.90264989  0.28991888  0.93721025     0.12100
H2417       H  0.84757905  0.28999081  0.93712799     0.12100
H2418       H  0.84755262  0.19248629  0.93634634     0.12100
C2419       C  0.60934747  0.21318207  0.93684625    -0.14000
C2420       C  0.59317878  0.24049111  0.93696711     0.08100
C2421       C  0.60927218  0.26781954  0.93705141    -0.14000
C2422       C  0.64081140  0.26785442  0.93699695    -0.14000
C2423       C  0.65699054  0.24056141  0.93685866     0.08100
C2424       C  0.64090770  0.21321702  0.93679272    -0.14000
H2425       H  0.59762716  0.19173684  0.93677880     0.12100
H2426       H  0.59750547  0.28925053  0.93714869     0.12100
H2427       H  0.65251071  0.28931078  0.93705929     0.12100
H2428       H  0.65269555  0.19179692  0.93669020     0.12100
C2429       C  0.89087438  0.03593249  0.93541510    -0.14000
C2430       C  0.90703021  0.50870454  0.93660886     0.08100
C2431       C  0.89092016  0.48147622  0.93787417    -0.14000
C2432       C  0.85935739  0.48149155  0.93798741    -0.14000
C2433       C  0.84321358  0.50873447  0.93683327     0.08100
C2434       C  0.85933240  0.03594772  0.93552941    -0.14000
H2435       H  0.90259608  0.05729411  0.93438325     0.12100
H2436       H  0.90269164  0.46011909  0.93883766     0.12100
H2437       H  0.84761321  0.46014250  0.93902089     0.12100
H2438       H  0.84758183  0.05731673  0.93456775     0.12100
C2439       C  0.60936745  0.48229644  0.93753766    -0.14000
C2440       C  0.59321823  0.50956521  0.93673105     0.08100
C2441       C  0.60932661  0.03686059  0.93585297    -0.14000
C2442       C  0.64089238  0.03685334  0.93582876    -0.14000
C2443       C  0.65702597  0.50955213  0.93668868     0.08100
C2444       C  0.64090044  0.48228963  0.93751523    -0.14000
H2445       H  0.59764761  0.46088807  0.93822574     0.12100
H2446       H  0.59755551  0.05825552  0.93517319     0.12100
H2447       H  0.65264400  0.05824550  0.93513927     0.12100
H2448       H  0.65263861  0.46087857  0.93819278     0.12100
C2449       C  0.89083885  0.21722456  0.18623159    -0.14000
C2450       C  0.90693547  0.24453444  0.18678781     0.08100
C2451       C  0.89078114  0.27182547  0.18735398    -0.14000
C2452       C  0.85924553  0.27181383  0.18739770    -0.14000
C2453       C  0.84313523  0.24451070  0.18686887     0.08100
C2454       C  0.85927798  0.21721295  0.18627246    -0.14000
H2455       H  0.90261922  0.19581909  0.18574799     0.12100
H2456       H  0.90249812  0.29325581  0.18782538     0.12100
H2457       H  0.84749481  0.29323563  0.18789396     0.12100
H2458       H  0.84753340  0.19579823  0.18581409     0.12100
C2459       C  0.60926157  0.21787600  0.18877359    -0.14000
C2460       C  0.59311971  0.24507490  0.18733311     0.08100
C2461       C  0.60924884  0.27225512  0.18588131    -0.14000
C2462       C  0.64081373  0.27223529  0.18586809    -0.14000
C2463       C  0.65694580  0.24503495  0.18730561     0.08100
C2464       C  0.64080837  0.21785603  0.18875962    -0.14000
H2465       H  0.59752626  0.19654465  0.18993871     0.12100
H2466       H  0.59748937  0.29358095  0.18470323     0.12100
H2467       H  0.65257126  0.29354860  0.18468245     0.12100
H2468       H  0.65254646  0.19651249  0.18991700     0.12100
C2469       C  0.89096781  0.03281922  0.18793741    -0.14000
C2470       C  0.90709943  0.50558333  0.18670477     0.08100
C2471       C  0.89097428  0.47836876  0.18547302    -0.14000
C2472       C  0.85941224  0.47838179  0.18554457    -0.14000
C2473       C  0.84329176  0.50560965  0.18685060     0.08100
C2474       C  0.85942938  0.03283158  0.18801027    -0.14000
H2475       H  0.90270343  0.05417871  0.18892323     0.12100
H2476       H  0.90273319  0.45701662  0.18445295     0.12100
H2477       H  0.84764888  0.45703781  0.18457081     0.12100
H2478       H  0.84769859  0.05419912  0.18904259     0.12100
C2479       C  0.60946010  0.47932475  0.18470079    -0.14000
C2480       C  0.59328501  0.50619951  0.18729885     0.08100
C2481       C  0.60937352  0.03311497  0.18989664    -0.14000
C2482       C  0.64094422  0.03312905  0.18992614    -0.14000
C2483       C  0.65710164  0.50622816  0.18736298     0.08100
C2484       C  0.64100070  0.47933831  0.18473488    -0.14000
H2485       H  0.59775131  0.45823203  0.18258308     0.12100
H2486       H  0.59757585  0.05418476  0.19197056     0.12100
H2487       H  0.65268749  0.05420910  0.19202247     0.12100
H2488       H  0.65276843  0.45825753  0.18264006     0.12100
C2489       C  0.74910500  0.26810836  0.01317507    -0.14000
C2490       C  0.75034463  0.24084942  0.02197114     0.08100
C2491       C  0.75152083  0.21352843  0.01323809    -0.14000
C2492       C  0.75145817  0.21348737  0.99609532    -0.14000
C2493       C  0.75021186  0.24076291  0.98730506     0.08100
C2494       C  0.74903364  0.26806702  0.99604626    -0.14000
H2495       H  0.74813117  0.28954816  0.01952300     0.12100
H2496       H  0.75252028  0.19213850  0.01964272     0.12100
H2497       H  0.75241729  0.19206065  0.98973364     0.12100
H2498       H  0.74802047  0.28947095  0.98965671     0.12100
C2499       C  0.74976725  0.24211375  0.12244277    -0.13900
C2500       C  0.74974078  0.24249710  0.13721951    -0.15500
C2501       C  0.75234665  0.48196481  0.01327188    -0.14000
C2502       C  0.75010236  0.50908960  0.02210212     0.08100
C2503       C  0.74782895  0.03641716  0.01341547    -0.14000
C2504       C  0.74779076  0.03660218  0.99627477    -0.14000
C2505       C  0.75001447  0.50945586  0.98745040     0.08100
C2506       C  0.75230235  0.48214764  0.99614812    -0.14000
H2507       H  0.75420190  0.46054008  0.01958677     0.12100
H2508       H  0.74600773  0.05770652  0.01985704     0.12100
H2509       H  0.74594477  0.05801024  0.98994300     0.12100
H2510       H  0.75413353  0.46083971  0.98972529     0.12100
C2511       C  0.74997144  0.50813471  0.12256264    -0.13900
C2512       C  0.74990875  0.00791700  0.13734340    -0.15500
C2513       C  0.89086224  0.26815271  0.07233649    -0.14000
C2514       C  0.90703453  0.24086245  0.07265593     0.08100
C2515       C  0.89094333  0.21352398  0.07291301    -0.14000
C2516       C  0.85937294  0.21350480  0.07289744    -0.14000
C2517       C  0.84321986  0.24082391  0.07262161     0.08100
C2518       C  0.85933121  0.26813353  0.07231843    -0.14000
H2519       H  0.90256130  0.28960472  0.07210216     0.12100
H2520       H  0.90273092  0.19210707  0.07314330     0.12100
H2521       H  0.84763384  0.19207358  0.07311600     0.12100
H2522       H  0.84758424  0.28957120  0.07207288     0.12100
C2523       C  0.60934785  0.26947910  0.07205707    -0.14000
C2524       C  0.59321890  0.24216194  0.07229209     0.08100
C2525       C  0.60935399  0.21484423  0.07240729    -0.14000
C2526       C  0.64088239  0.21481194  0.07238160    -0.14000
C2527       C  0.65703333  0.24209758  0.07224124     0.08100
C2528       C  0.64092056  0.26944675  0.07203154    -0.14000
H2529       H  0.59758923  0.29091513  0.07192812     0.12100
H2530       H  0.59762638  0.19340501  0.07255710     0.12100
H2531       H  0.65259646  0.19335281  0.07251519     0.12100
H2532       H  0.65269329  0.29086247  0.07188578     0.12100
C2533       C  0.49707549  0.26805041  0.99615015    -0.14000
C2534       C  0.49984601  0.24081081  0.98745326     0.08100
C2535       C  0.00254549  0.21368183  0.99627193    -0.14000
C2536       C  0.00253477  0.21380348  0.01340594    -0.14000
C2537       C  0.49981479  0.24105739  0.02209660     0.08100
C2538       C  0.49705592  0.26817142  0.01327690    -0.14000
H2539       H  0.49485797  0.28932860  0.98972596     0.12100
H2540       H  0.00478129  0.19232069  0.98993837     0.12100
H2541       H  0.00476176  0.19253320  0.01983769     0.12100
H2542       H  0.49482965  0.28954097  0.01960372     0.12100
C2543       C  0.50049223  0.24223585  0.13724128    -0.13900
C2544       C  0.50045609  0.24190310  0.12247412    -0.15500
C2545       C  0.89091861  0.48134683  0.07253759    -0.14000
C2546       C  0.90704245  0.50866074  0.07244362     0.08100
C2547       C  0.89089955  0.03597866  0.07226054    -0.14000
C2548       C  0.85934237  0.03598404  0.07226416    -0.14000
C2549       C  0.84322326  0.50867019  0.07245595     0.08100
C2550       C  0.85937163  0.48135173  0.07254243    -0.14000
H2551       H  0.90266592  0.45990498  0.07264280     0.12100
H2552       H  0.90263950  0.05741203  0.07213607     0.12100
H2553       H  0.84758393  0.05741957  0.07214559     0.12100
H2554       H  0.84764303  0.45991135  0.07265357     0.12100
C2555       C  0.60935067  0.03552805  0.07206045    -0.14000
C2556       C  0.59323080  0.50822204  0.07220443     0.08100
C2557       C  0.60937011  0.48089367  0.07230226    -0.14000
C2558       C  0.64092818  0.48089273  0.07237592    -0.14000
C2559       C  0.65703807  0.50822012  0.07235348     0.08100
C2560       C  0.64088994  0.03552766  0.07213623    -0.14000
H2561       H  0.59760473  0.05697001  0.07193572     0.12100
H2562       H  0.59762846  0.45946037  0.07237512     0.12100
H2563       H  0.65269210  0.45945968  0.07249608     0.12100
H2564       H  0.65261294  0.05697045  0.07205841     0.12100
C2565       C  0.49921463  0.03637927  0.01324042    -0.14000
C2566       C  0.99997411  0.50897680  0.02193356     0.08100
C2567       C  0.00075494  0.48176421  0.01310783    -0.14000
C2568       C  0.00075203  0.48193818  0.99598226    -0.14000
C2569       C  0.49996340  0.50932555  0.98727918     0.08100
C2570       C  0.49920630  0.03655574  0.99610163    -0.14000
H2571       H  0.49860178  0.05774429  0.01967453     0.12100
H2572       H  0.00139405  0.46027356  0.01942675     0.12100
H2573       H  0.00138697  0.46055798  0.98956380     0.12100
H2574       H  0.49859052  0.05803429  0.98977044     0.12100
C2575       C  0.00060287  0.00828631  0.12238194    -0.13900
C2576       C  0.00069357  0.00810994  0.13715972    -0.15500
C2577       C  0.78226861  0.25081836  0.49596805    -0.14000
C2578       C  0.75498517  0.24946476  0.48720970     0.08100
C2579       C  0.72769637  0.24804159  0.49596896    -0.14000
C2580       C  0.72767465  0.24810194  0.51309671    -0.14000
C2581       C  0.75494395  0.24957467  0.52185884     0.08100
C2582       C  0.78224716  0.25087051  0.51310256    -0.14000
H2583       H  0.80367731  0.25194313  0.48958975     0.12100
H2584       H  0.70628710  0.24690729  0.48959411     0.12100
H2585       H  0.70625850  0.24699538  0.51946832     0.12100
H2586       H  0.80364823  0.25202343  0.51948428     0.12100
C2587       C  0.78143917  0.39099868  0.43611017    -0.14000
C2588       C  0.75416600  0.40710947  0.43715049     0.08100
C2589       C  0.72693316  0.39095710  0.43821627    -0.14000
C2590       C  0.72698052  0.35939587  0.43818835    -0.14000
C2591       C  0.75426082  0.34329568  0.43708951     0.08100
C2592       C  0.78148618  0.35945977  0.43607927    -0.14000
H2593       H  0.80281069  0.40275368  0.43525514     0.12100
H2594       H  0.70554151  0.40269276  0.43907572     0.12100
H2595       H  0.70561919  0.34761806  0.43902656     0.12100
H2596       H  0.80288862  0.34774849  0.43520340     0.12100
C2597       C  0.78215925  0.10936122  0.43568640    -0.14000
C2598       C  0.75484367  0.09329834  0.43656749     0.08100
C2599       C  0.72760354  0.10949688  0.43737822    -0.14000
C2600       C  0.72765899  0.14103261  0.43731655    -0.14000
C2601       C  0.75495511  0.15710824  0.43644263     0.08100
C2602       C  0.78221466  0.14092273  0.43562391    -0.14000
H2603       H  0.80353791  0.09755565  0.43502866     0.12100
H2604       H  0.70617780  0.09781526  0.43809572     0.12100
H2605       H  0.70626886  0.15281250  0.43799383     0.12100
H2606       H  0.80362961  0.15263017  0.43492611     0.12100
C2607       C  0.72699661  0.00014478  0.49614298    -0.14000
C2608       C  0.75431008  0.50061572  0.48737338     0.08100
C2609       C  0.78163487  0.50104817  0.49611258    -0.14000
C2610       C  0.78166096  0.50093245  0.51323482    -0.14000
C2611       C  0.75436375  0.50037434  0.52201141     0.08100
C2612       C  0.72702295  0.00002219  0.51327595    -0.14000
H2613       H  0.70555218  0.99980570  0.48977471     0.12100
H2614       H  0.80306319  0.50144747  0.48972789     0.12100
H2615       H  0.80311570  0.50125564  0.51959173     0.12100
H2616       H  0.70560432  0.99960887  0.51967024     0.12100
C2617       C  0.96682139  0.25174632  0.49604214    -0.14000
C2618       C  0.49406600  0.24963994  0.48728022     0.08100
C2619       C  0.52129418  0.24740103  0.49603646    -0.14000
C2620       C  0.52130556  0.24734108  0.51315925    -0.14000
C2621       C  0.49408913  0.24951995  0.52193233     0.08100
C2622       C  0.96683295  0.25168613  0.51318411    -0.14000
H2623       H  0.94546221  0.25354617  0.48966045     0.12100
H2624       H  0.54266750  0.24566520  0.48966239     0.12100
H2625       H  0.54268660  0.24556691  0.51952064     0.12100
H2626       H  0.94548142  0.25344734  0.51957748     0.12100
C2627       C  0.52225838  0.39083309  0.43715623    -0.14000
C2628       C  0.49498738  0.40705601  0.43706505     0.08100
C2629       C  0.96761388  0.39102006  0.43706483    -0.14000
C2630       C  0.96751362  0.35947371  0.43706507    -0.14000
C2631       C  0.49478555  0.34324983  0.43706849     0.08100
C2632       C  0.52215804  0.35928590  0.43715856    -0.14000
H2633       H  0.54373302  0.40250151  0.43718598     0.12100
H2634       H  0.94620706  0.40283606  0.43702558     0.12100
H2635       H  0.94603798  0.34780642  0.43702700     0.12100
H2636       H  0.54356420  0.34746902  0.43718952     0.12100
C2637       C  0.52221553  0.10944347  0.43684014    -0.14000
C2638       C  0.49495133  0.09324400  0.43661098     0.08100
C2639       C  0.96757826  0.10931339  0.43643096    -0.14000
C2640       C  0.96747341  0.14086476  0.43644402    -0.14000
C2641       C  0.49474073  0.15706246  0.43663467     0.08100
C2642       C  0.52211066  0.14099250  0.43685158    -0.14000
H2643       H  0.54368909  0.09775475  0.43700775     0.12100
H2644       H  0.94617413  0.09751854  0.43627253     0.12100
H2645       H  0.94600049  0.15255601  0.43629307     0.12100
H2646       H  0.54351561  0.15278540  0.43702707     0.12100
C2647       C  0.52176810  0.99954705  0.49603985    -0.14000
C2648       C  0.49450420  0.50041157  0.48724882     0.08100
C2649       C  0.96715195  0.50125028  0.49597421    -0.14000
C2650       C  0.96708144  0.50121124  0.51311343    -0.14000
C2651       C  0.49436265  0.50033179  0.52189956     0.08100
C2652       C  0.52169882  0.99950833  0.51316314    -0.14000
H2653       H  0.54322965  0.99885763  0.48969488     0.12100
H2654       H  0.94575605  0.50194654  0.48956610     0.12100
H2655       H  0.94563595  0.50188169  0.51947425     0.12100
H2656       H  0.54311207  0.99879356  0.51955281     0.12100
C2657       C  0.76960808  0.26892252  0.26280991    -0.14000
C2658       C  0.75164451  0.24889526  0.27187181     0.08100
C2659       C  0.73325544  0.22808017  0.26363404    -0.14000
C2660       C  0.73326366  0.22690732  0.24651708    -0.14000
C2661       C  0.75082483  0.24727519  0.23742702     0.08100
C2662       C  0.76878422  0.26848532  0.24568212    -0.14000
H2663       H  0.78386112  0.28519586  0.26899291     0.12100
H2664       H  0.71934417  0.21238528  0.27045928     0.12100
H2665       H  0.71918033  0.21045186  0.24036390     0.12100
H2666       H  0.78257824  0.28430747  0.23887544     0.12100
C2667       C  0.75395488  0.25087699  0.37202267    -0.13900
C2668       C  0.75415491  0.25086022  0.38679548    -0.15500
C2669       C  0.72590354  0.39103688  0.32218606    -0.14000
C2670       C  0.75323238  0.40713870  0.32177735     0.08100
C2671       C  0.78051545  0.39097356  0.32118712    -0.14000
C2672       C  0.78046493  0.35941406  0.32112995    -0.14000
C2673       C  0.75312863  0.34332284  0.32164782     0.08100
C2674       C  0.72585229  0.35949719  0.32211261    -0.14000
H2675       H  0.70448176  0.40279813  0.32261421     0.12100
H2676       H  0.80195186  0.40269498  0.32082187     0.12100
H2677       H  0.80187629  0.34763071  0.32071901     0.12100
H2678       H  0.70440734  0.34779398  0.32250062     0.12100
C2679       C  0.77992216  0.10942886  0.32261471    -0.14000
C2680       C  0.75258892  0.09332111  0.32269683     0.08100
C2681       C  0.72527941  0.10947867  0.32270282    -0.14000
C2682       C  0.72531592  0.14103699  0.32263325    -0.14000
C2683       C  0.75266271  0.15713560  0.32254012     0.08100
C2684       C  0.77995840  0.14096854  0.32252693    -0.14000
H2685       H  0.80136082  0.09767191  0.32259127     0.12100
H2686       H  0.70383564  0.09775166  0.32275076     0.12100
H2687       H  0.70388729  0.15281312  0.32262808     0.12100
H2688       H  0.80141162  0.15267718  0.32245526     0.12100
C2689       C  0.73659888  0.47944614  0.26328260    -0.14000
C2690       C  0.75191195  0.50180684  0.27213317     0.08100
C2691       C  0.76676398  0.02504379  0.26371042    -0.14000
C2692       C  0.76589171  0.02620604  0.24659287    -0.14000
C2693       C  0.75100117  0.50356373  0.23766516     0.08100
C2694       C  0.73657321  0.48003033  0.24614688    -0.14000
H2695       H  0.72509031  0.46131829  0.26963455     0.12100
H2696       H  0.77858400  0.04254079  0.27040072     0.12100
H2697       H  0.77727280  0.04449928  0.24031929     0.12100
H2698       H  0.72486833  0.46237950  0.23952358     0.12100
C2699       C  0.75428384  0.49963494  0.38701454    -0.13900
C2700       C  0.75401503  0.49955424  0.37224796    -0.15500
C2701       C  0.97515008  0.26324886  0.26272639    -0.14000
C2702       C  0.49823485  0.24926525  0.27177965     0.08100
C2703       C  0.52173772  0.23454077  0.26342602    -0.14000
C2704       C  0.52185799  0.23333936  0.24631033    -0.14000
C2705       C  0.49903955  0.24768720  0.23731670     0.08100
C2706       C  0.97583072  0.26288781  0.24559004    -0.14000
H2707       H  0.95684707  0.27481047  0.26890340     0.12100
H2708       H  0.53970437  0.22349392  0.27014478     0.12100
H2709       H  0.53997607  0.22159382  0.24006917     0.12100
H2710       H  0.95799756  0.27398700  0.23878580     0.12100
C2711       C  0.49591906  0.25059023  0.37207676    -0.13900
C2712       C  0.49551745  0.25058760  0.38685115    -0.15500
C2713       C  0.96952923  0.39093829  0.32226597    -0.14000
C2714       C  0.49679203  0.40711481  0.32185626     0.08100
C2715       C  0.52415144  0.39103083  0.32142848    -0.14000
C2716       C  0.52424764  0.35948380  0.32144973    -0.14000
C2717       C  0.49698626  0.34330542  0.32190915     0.08100
C2718       C  0.96962576  0.35938923  0.32229939    -0.14000
H2719       H  0.94807222  0.40264505  0.32261556     0.12100
H2720       H  0.54555561  0.40281211  0.32107905     0.12100
H2721       H  0.54570806  0.34778131  0.32111824     0.12100
H2722       H  0.94822340  0.34760708  0.32266286     0.12100
C2723       C  0.96967250  0.10948099  0.32240515    -0.14000
C2724       C  0.49697745  0.09329745  0.32248393     0.08100
C2725       C  0.52431374  0.10938179  0.32256081    -0.14000
C2726       C  0.52434111  0.14093506  0.32254213    -0.14000
C2727       C  0.49703224  0.15711550  0.32243146     0.08100
C2728       C  0.96970006  0.14102804  0.32236935    -0.14000
H2729       H  0.94821557  0.09777896  0.32234078     0.12100
H2730       H  0.54573853  0.09759944  0.32262556     0.12100
H2731       H  0.54579448  0.15264367  0.32258874     0.12100
H2732       H  0.94827193  0.15280403  0.32229159     0.12100
C2733       C  0.51672362  0.48202902  0.26309732    -0.14000
C2734       C  0.99747868  0.50134061  0.27185150     0.08100
C2735       C  0.97877362  0.02145769  0.26327759    -0.14000
C2736       C  0.97981977  0.02273321  0.24616234    -0.14000
C2737       C  0.99877557  0.50313802  0.23738907     0.08100
C2738       C  0.51695805  0.48253413  0.24596191    -0.14000
H2739       H  0.53122823  0.46628414  0.26952165     0.12100
H2740       H  0.96385778  0.03660314  0.26984454     0.12100
H2741       H  0.96549711  0.03866603  0.23975496     0.12100
H2742       H  0.53176120  0.46726940  0.23940322     0.12100
C2743       C  0.49616130  0.49961224  0.37206646    -0.13900
C2744       C  0.49590526  0.49965521  0.38683929    -0.15500
C2745       C  0.75011710  0.24167556  0.87203074    -0.13900
C2746       C  0.75007190  0.24127406  0.88681094    -0.15500
C2747       C  0.75039631  0.50797014  0.88702134    -0.13900
C2748       C  0.75042259  0.50722295  0.87225249    -0.15500
C2749       C  0.89087522  0.27104435  0.82413526    -0.14000
C2750       C  0.90705490  0.24393296  0.82238963     0.08100
C2751       C  0.89097830  0.21679533  0.82060225    -0.14000
C2752       C  0.85942060  0.21678668  0.82054106    -0.14000
C2753       C  0.84325314  0.24391894  0.82224865     0.08100
C2754       C  0.85933481  0.27103890  0.82405552    -0.14000
H2755       H  0.90257671  0.29233336  0.82557701     0.12100
H2756       H  0.90276941  0.19553275  0.81920343     0.12100
H2757       H  0.84769628  0.19551003  0.81909610     0.12100
H2758       H  0.84755521  0.29230719  0.82545495     0.12100
C2759       C  0.60933757  0.21729204  0.82123530    -0.14000
C2760       C  0.59324272  0.24460029  0.82214545     0.08100
C2761       C  0.60941926  0.27182361  0.82305119    -0.14000
C2762       C  0.64098214  0.27172702  0.82305304    -0.14000
C2763       C  0.65706833  0.24440687  0.82213307     0.08100
C2764       C  0.64088270  0.21719682  0.82122354    -0.14000
H2765       H  0.59756444  0.19591839  0.82051062     0.12100
H2766       H  0.59770325  0.29324003  0.82378961     0.12100
H2767       H  0.65277220  0.29309106  0.82378329     0.12100
H2768       H  0.65257959  0.19576919  0.82049511     0.12100
C2769       C  0.50029643  0.24096958  0.88697682    -0.13900
C2770       C  0.50033058  0.24143426  0.87219380    -0.15500
C2771       C  0.89104364  0.03407403  0.82351422    -0.14000
C2772       C  0.90713754  0.50682123  0.82218379     0.08100
C2773       C  0.89096438  0.47968288  0.82079778    -0.14000
C2774       C  0.85947783  0.47971029  0.82078847    -0.14000
C2775       C  0.84331429  0.50687600  0.82216786     0.08100
C2776       C  0.85941744  0.03410148  0.82350827    -0.14000
H2777       H  0.90287110  0.05535800  0.82464604     0.12100
H2778       H  0.90264066  0.45830215  0.81967497     0.12100
H2779       H  0.84779385  0.45834659  0.81966378     0.12100
H2780       H  0.84760022  0.05540401  0.82463914     0.12100
C2781       C  0.60944684  0.47513182  0.82255177    -0.14000
C2782       C  0.59331230  0.50248416  0.82240371     0.08100
C2783       C  0.60945044  0.02976654  0.82242511    -0.14000
C2784       C  0.64093013  0.02979231  0.82251769    -0.14000
C2785       C  0.65713986  0.50253598  0.82258739     0.08100
C2786       C  0.64107259  0.47515740  0.82264216    -0.14000
H2787       H  0.59765951  0.45372391  0.82256946     0.12100
H2788       H  0.59776086  0.05123905  0.82235161     0.12100
H2789       H  0.65256589  0.05128198  0.82250126     0.12100
H2790       H  0.65291373  0.45376664  0.82271587     0.12100
C2791       C  0.50056498  0.50743352  0.87208351    -0.13900
C2792       C  0.50056033  0.50816401  0.88685099    -0.15500
C2793       C  0.73003952  0.26534703  0.74611709    -0.14000
C2794       C  0.75131295  0.24832562  0.73732270     0.08100
C2795       C  0.77212664  0.23036922  0.74589498    -0.14000
C2796       C  0.77137997  0.22908148  0.76300951    -0.14000
C2797       C  0.75052548  0.24656606  0.77179657     0.08100
C2798       C  0.73001920  0.26489996  0.76326224    -0.14000
H2799       H  0.71383764  0.27938830  0.73972807     0.12100
H2800       H  0.78861541  0.21694616  0.73933119     0.12100
H2801       H  0.78742813  0.21487984  0.76941127     0.12100
H2802       H  0.71369134  0.27845231  0.76986620     0.12100
C2803       C  0.75453275  0.25014113  0.63706314    -0.13900
C2804       C  0.75478673  0.25012061  0.62228829    -0.15500
C2805       C  0.72536820  0.35906347  0.68694292    -0.14000
C2806       C  0.75269096  0.34290125  0.68722346     0.08100
C2807       C  0.77999449  0.35901877  0.68757932    -0.14000
C2808       C  0.77999008  0.39056454  0.68761925    -0.14000
C2809       C  0.75268137  0.40673651  0.68731842     0.08100
C2810       C  0.72536324  0.39062757  0.68699699    -0.14000
H2811       H  0.70393292  0.34733226  0.68667365     0.12100
H2812       H  0.80143195  0.34726667  0.68780433     0.12100
H2813       H  0.80143570  0.40227678  0.68787751     0.12100
H2814       H  0.70393616  0.40239832  0.68675676     0.12100
C2815       C  0.72596568  0.10901721  0.68674334    -0.14000
C2816       C  0.75332003  0.09292096  0.68698853     0.08100
C2817       C  0.78060478  0.10907455  0.68724873    -0.14000
C2818       C  0.78052684  0.14062621  0.68719910    -0.14000
C2819       C  0.75316229  0.15671402  0.68690606     0.08100
C2820       C  0.72588721  0.14055168  0.68671180    -0.14000
H2821       H  0.70454375  0.09725561  0.68657545     0.12100
H2822       H  0.80205880  0.09735062  0.68746310     0.12100
H2823       H  0.80193859  0.15240554  0.68738912     0.12100
H2824       H  0.70442333  0.15225774  0.68651358     0.12100
C2825       C  0.76927373  0.48112390  0.74652607    -0.14000
C2826       C  0.75100806  0.50093207  0.73748389     0.08100
C2827       C  0.73233360  0.02145475  0.74578393    -0.14000
C2828       C  0.73238740  0.02255408  0.76292133    -0.14000
C2829       C  0.75028866  0.50239769  0.77197910     0.08100
C2830       C  0.76850579  0.48147734  0.76365852    -0.14000
H2831       H  0.78377425  0.46508717  0.74031961     0.12100
H2832       H  0.71819730  0.03701613  0.73899523     0.12100
H2833       H  0.71811133  0.03880894  0.76911241     0.12100
H2834       H  0.78258177  0.46582538  0.77042044     0.12100
C2835       C  0.75539799  0.49964813  0.62244167    -0.13900
C2836       C  0.75515409  0.49957828  0.63722091    -0.15500
C2837       C  0.97553668  0.26216900  0.74650561    -0.14000
C2838       C  0.99898021  0.24871399  0.73748533     0.08100
C2839       C  0.52283037  0.23465056  0.74589984    -0.14000
C2840       C  0.52290843  0.23353570  0.76303005    -0.14000
C2841       C  0.49967449  0.24731329  0.77198135     0.08100
C2842       C  0.97614098  0.26188312  0.76364438    -0.14000
H2843       H  0.95696360  0.27323816  0.74030121     0.12100
H2844       H  0.54110459  0.22403021  0.73922295     0.12100
H2845       H  0.54127853  0.22227064  0.76931388     0.12100
H2846       H  0.95798109  0.27253349  0.77040432     0.12100
C2847       C  0.99547134  0.25047397  0.62236757    -0.13900
C2848       C  0.99586298  0.25045903  0.63714237    -0.15500
C2849       C  0.52645168  0.39055235  0.68666285    -0.14000
C2850       C  0.99914996  0.40666989  0.68764559     0.08100
C2851       C  0.97195799  0.39051362  0.68884362    -0.14000
C2852       C  0.97196752  0.35901455  0.68885598    -0.14000
C2853       C  0.99916966  0.34284321  0.68766997     0.08100
C2854       C  0.52646126  0.35894474  0.68667465    -0.14000
H2855       H  0.54779646  0.40234388  0.68577089     0.12100
H2856       H  0.95054488  0.40220669  0.68972158     0.12100
H2857       H  0.95056136  0.34733385  0.68974171     0.12100
H2858       H  0.54781312  0.34714072  0.68578995     0.12100
C2859       C  0.96850229  0.10898188  0.68522393    -0.14000
C2860       C  0.99566425  0.09285368  0.68697035     0.08100
C2861       C  0.52274141  0.10898289  0.68882554    -0.14000
C2862       C  0.52275674  0.14048080  0.68881437    -0.14000
C2863       C  0.99569494  0.15666452  0.68695078     0.08100
C2864       C  0.96851746  0.14058998  0.68521374    -0.14000
H2865       H  0.94726140  0.09719358  0.68376573     0.12100
H2866       H  0.54402407  0.09726330  0.69032118     0.12100
H2867       H  0.54405108  0.15215841  0.69030403     0.12100
H2868       H  0.94728814  0.15242027  0.68375015     0.12100
C2869       C  0.52302722  0.01426616  0.74586487    -0.14000
C2870       C  0.99889443  0.50071143  0.73746279     0.08100
C2871       C  0.97517457  0.48778495  0.74649529    -0.14000
C2872       C  0.97582943  0.48800098  0.76363081    -0.14000
C2873       C  0.99971511  0.50196815  0.77195081     0.08100
C2874       C  0.52318152  0.01530375  0.76299297    -0.14000
H2875       H  0.54149150  0.02452751  0.73918249     0.12100
H2876       H  0.95634251  0.47716468  0.74030473     0.12100
H2877       H  0.95745948  0.47775317  0.77040235     0.12100
H2878       H  0.54179173  0.02615387  0.76926966     0.12100
C2879       C  0.49538178  0.49952128  0.62234244    -0.13900
C2880       C  0.49582463  0.49940216  0.63711807    -0.15500
O2881       O  0.97154892  0.49915576  0.66262582    -0.73600
O2882       O  0.97311008  0.49920614  0.71182868    -0.74600
O2883       O  0.97124227  0.54464950  0.68716090    -0.63200
O2884       O  0.97349841  0.95405326  0.68734520    -0.71600
O2885       O  0.52353852  0.95489373  0.68710703    -0.71200
O2886       O  0.52127772  0.54547994  0.68655342    -0.62400
O2887       O  0.52316269  0.00102718  0.71137981    -0.74900
O2888       O  0.52170169  0.99977606  0.66216912    -0.73700
Cu2889     Cu  0.97060652  0.49922188  0.68724630     1.04600
Cu2890     Cu  0.52416783  0.00031945  0.68677367     1.04300
C2891       C  0.49638631  0.49941842  0.65470345     0.92600
C2892       C  0.99836561  0.00026309  0.71937581     0.91700
C2893       C  0.49601697  0.55943121  0.68687374     0.83900
C2894       C  0.49876752  0.94010213  0.68735297     0.90100
O2895       O  0.97318775  0.75028344  0.71185479    -0.73600
O2896       O  0.97157194  0.75049880  0.66264853    -0.74600
O2897       O  0.97129380  0.70490546  0.68716552    -0.63200
O2898       O  0.97353340  0.79548721  0.68738476    -0.71600
O2899       O  0.52357378  0.79459755  0.68714210    -0.71200
O2900       O  0.52132765  0.70400640  0.68653489    -0.62400
O2901       O  0.52172589  0.74983282  0.66218742    -0.74900
O2902       O  0.52324077  0.74835844  0.71139892    -0.73700
Cu2903     Cu  0.97065333  0.75033363  0.68727050     1.04600
Cu2904     Cu  0.52421517  0.74916764  0.68678620     1.04300
C2905       C  0.99844748  0.74916629  0.71939802     0.92600
C2906       C  0.99640969  0.75027446  0.65472517     0.91700
C2907       C  0.99606286  0.69008913  0.68686014     0.83900
C2908       C  0.99879960  0.80941250  0.68738882     0.90100
O2909       O  0.72906586  0.99933249  0.66220044    -0.73600
O2910       O  0.72694817  0.00123892  0.71141797    -0.74600
O2911       O  0.72824950  0.54527322  0.68639274    -0.63200
O2912       O  0.72781315  0.95471230  0.68723664    -0.71600
O2913       O  0.77786289  0.95439734  0.68726893    -0.71200
O2914       O  0.77825538  0.54500918  0.68758385    -0.62400
O2915       O  0.77702625  0.99911523  0.71202238    -0.74900
O2916       O  0.77921351  0.99994751  0.66280695    -0.73700
Cu2917     Cu  0.72626936  0.00011066  0.68678709     1.04600
Cu2918     Cu  0.77983987  0.99961854  0.68744208     1.04300
C2919       C  0.75445910  0.99960357  0.65480917     0.92600
C2920       C  0.75167723  0.00037420  0.71946089     0.91700
C2921       C  0.75330409  0.55950607  0.68698334     0.83900
C2922       C  0.75276751  0.94017863  0.68728242     0.90100
O2923       O  0.77808978  0.70449081  0.68681036    -0.73600
O2924       O  0.77773783  0.79505624  0.68756298    -0.74600
O2925       O  0.77709827  0.74861448  0.71174931    -0.63200
O2926       O  0.77881158  0.75042078  0.66257110    -0.71600
O2927       O  0.72865874  0.74964211  0.66210031    -0.71200
O2928       O  0.72700723  0.75023350  0.71131791    -0.62400
O2929       O  0.72771967  0.79511431  0.68659058    -0.74900
O2930       O  0.72803515  0.70450357  0.68684921    -0.73700
Cu2931     Cu  0.77967994  0.74969234  0.68718727     1.04600
Cu2932     Cu  0.72610188  0.74986110  0.68669076     1.04300
C2933       C  0.75308320  0.69013170  0.68684330     0.92600
C2934       C  0.75272070  0.80946094  0.68712322     0.91700
C2935       C  0.75181738  0.74916544  0.71928304     0.83900
C2936       C  0.75398303  0.75007773  0.65464428     0.90100
O2937       O  0.95547405  0.53103630  0.82166966    -0.73600
O2938       O  0.54603233  0.52822794  0.82205907    -0.74600
O2939       O  0.50147003  0.52830217  0.79724967    -0.63200
O2940       O  0.00060645  0.53108219  0.84641515    -0.71600
O2941       O  0.00011944  0.98093844  0.84723982    -0.71200
O2942       O  0.49870473  0.97824216  0.79804258    -0.62400
O2943       O  0.54498138  0.97819384  0.82238452    -0.74900
O2944       O  0.95439420  0.98103374  0.82287160    -0.73700
Cu2945     Cu  0.50093853  0.53140658  0.82181392     1.04600
Cu2946     Cu  0.99951160  0.97784551  0.82266440     1.04300
C2947       C  0.94056496  0.00634101  0.82225428     0.92600
C2948       C  0.55987650  0.00290783  0.82226468     0.91700
C2949       C  0.99999886  0.00286660  0.78992768     0.83900
C2950       C  0.50043104  0.00643627  0.85451355     0.90100
O2951       O  0.95468246  0.76910007  0.82311491    -0.73600
O2952       O  0.54530234  0.76955612  0.82236121    -0.74600
O2953       O  0.49889258  0.77086383  0.79812365    -0.63200
O2954       O  0.50058185  0.76792722  0.84733253    -0.71600
O2955       O  0.49997519  0.71779989  0.84648010    -0.71200
O2956       O  0.50101750  0.72078772  0.79725714    -0.62400
O2957       O  0.54556831  0.71951233  0.82205231    -0.74900
O2958       O  0.95500764  0.71912750  0.82162641    -0.73700
Cu2959     Cu  0.49988352  0.77111576  0.82276259     1.04600
Cu2960     Cu  0.50038185  0.71755913  0.82182558     1.04300
C2961       C  0.94047794  0.74403807  0.82238283     0.92600
C2962       C  0.55980823  0.74458565  0.82218352     0.91700
C2963       C  0.49987754  0.74628290  0.78996756     0.83900
C2964       C  0.50030477  0.74241431  0.85460235     0.90100
O2965       O  0.74876454  0.52861833  0.79743251    -0.73600
O2966       O  0.75005318  0.53101189  0.84662346    -0.74600
O2967       O  0.79496472  0.53114915  0.82176512    -0.63200
O2968       O  0.70438364  0.52833035  0.82236248    -0.71600
O2969       O  0.70550567  0.97829881  0.82262274    -0.71200
O2970       O  0.79606456  0.98113930  0.82283381    -0.62400
O2971       O  0.75064302  0.98086733  0.84735450    -0.74900
O2972       O  0.75145459  0.97858460  0.79813486    -0.73700
Cu2973     Cu  0.74949282  0.53152215  0.82201900     1.04600
Cu2974     Cu  0.75095792  0.97797241  0.82276350     1.04300
C2975       C  0.75011892  0.00323832  0.79003040     0.92600
C2976       C  0.75037910  0.00631909  0.85467796     0.91700
C2977       C  0.80988351  0.00643818  0.82226295     0.83900
C2978       C  0.69057338  0.00300228  0.82253054     0.90100
O2979       O  0.70487025  0.76927951  0.82274760    -0.73600
O2980       O  0.79543568  0.76896101  0.82229244    -0.74600
O2981       O  0.74937674  0.77036352  0.79789632    -0.63200
O2982       O  0.75052373  0.76793912  0.84710456    -0.71600
O2983       O  0.74978415  0.71780354  0.84639406    -0.71200
O2984       O  0.75106634  0.72027383  0.79718657    -0.62400
O2985       O  0.79550537  0.71891143  0.82202266    -0.81300
O2986       O  0.70488431  0.71928534  0.82151062    -0.73700
Cu2987     Cu  0.75008082  0.77088202  0.82253152     1.04600
Cu2988     Cu  0.75027383  0.71731434  0.82175309     1.04300
C2989       C  0.69050449  0.74430586  0.82212841     0.92600
C2990       C  0.80983597  0.74393405  0.82217683     0.91700
C2991       C  0.75026899  0.74569838  0.78980690     0.83900
C2992       C  0.75014979  0.74249590  0.85444322     0.90100
O2993       O  0.97202469  0.00155128  0.29751448    -0.73600
O2994       O  0.97142313  0.99950931  0.34670454    -0.74600
O2995       O  0.97184080  0.54560613  0.32256039    -0.63200
O2996       O  0.97175256  0.95499053  0.32165910    -0.71600
O2997       O  0.52179050  0.95482702  0.32234997    -0.71200
O2998       O  0.52188942  0.54538418  0.32220697    -0.62400
O2999       O  0.52158664  0.00014662  0.34689114    -0.74900
O3000       O  0.52212591  0.99964916  0.29769755    -0.73700
Cu3001     Cu  0.97000345  0.00038458  0.32210490     1.04600
Cu3002     Cu  0.52359416  0.00001544  0.32229366     1.04300
C3003       C  0.99718037  0.00077530  0.28986826     0.92600
C3004       C  0.49640576  0.99973775  0.35448777     0.91700
C3005       C  0.99691139  0.55986624  0.32242390     0.83900
C3006       C  0.99675397  0.94054025  0.32194828     0.90100
O3007       O  0.52210028  0.70485539  0.32271931    -0.73600
O3008       O  0.52206874  0.79547096  0.32198954    -0.74600
O3009       O  0.52161276  0.75075140  0.34697291    -0.63200
O3010       O  0.52262686  0.74923118  0.29778875    -0.71600
O3011       O  0.97254818  0.75070401  0.29743330    -0.71200
O3012       O  0.97145369  0.75012925  0.34663472    -0.62400
O3013       O  0.97201743  0.79554771  0.32212610    -0.74900
O3014       O  0.97206925  0.70498178  0.32194401    -0.73700
Cu3015     Cu  0.52385451  0.75010410  0.32237943     1.04600
Cu3016     Cu  0.97027789  0.75033046  0.32202475     1.04300
C3017       C  0.49706426  0.69054675  0.32236330     0.92600
C3018       C  0.49704313  0.80987915  0.32200866     0.91700
C3019       C  0.49635247  0.75049649  0.35449520     0.83900
C3020       C  0.49777205  0.74981604  0.28984765     0.90100
O3021       O  0.77774075  0.54564388  0.32279235    -0.73600
O3022       O  0.77814935  0.95506279  0.32167485    -0.74600
O3023       O  0.77748663  0.00182925  0.29768241    -0.63200
O3024       O  0.77853994  0.99941777  0.34683219    -0.71600
O3025       O  0.72837549  0.00009615  0.34715627    -0.71200
O3026       O  0.72737784  0.99971980  0.29796949    -0.62400
O3027       O  0.72812428  0.95481250  0.32258527    -0.74900
O3028       O  0.72768944  0.54540194  0.32250418    -0.73700
Cu3029     Cu  0.77973169  0.00045773  0.32224107     1.04600
Cu3030     Cu  0.72613711  0.00000917  0.32257142     1.04300
C3031       C  0.75265029  0.55989260  0.32268122     0.92600
C3032       C  0.75319423  0.94056743  0.32201862     0.91700
C3033       C  0.75227512  0.00102854  0.29010815     0.83900
C3034       C  0.75362581  0.99966329  0.35467959     0.90100
O3035       O  0.72726641  0.74892063  0.29778045    -0.73600
O3036       O  0.72834952  0.75108840  0.34691975    -0.74600
O3037       O  0.72803852  0.79552838  0.32180415    -0.63200
O3038       O  0.72770973  0.70494501  0.32283798    -0.71600
O3039       O  0.77773671  0.70492602  0.32193728    -0.71200
O3040       O  0.77809131  0.79552052  0.32200381    -0.62400
O3041       O  0.77850779  0.75017784  0.34659352    -0.74900
O3042       O  0.77737755  0.75065625  0.29739771    -0.73700
Cu3043     Cu  0.72609215  0.75016537  0.32234944     1.04600
Cu3044     Cu  0.77968425  0.75029582  0.32197504     1.04300
C3045       C  0.75212842  0.74957861  0.28986293     0.92600
C3046       C  0.75359471  0.75072783  0.35444558     0.91700
C3047       C  0.75307769  0.80989407  0.32181107     0.83900
C3048       C  0.75271244  0.69056492  0.32243648     0.90100
O3049       O  0.51976291  0.00027055  0.46138077    -0.73600
O3050       O  0.52058452  0.99993615  0.41221769    -0.74600
O3051       O  0.52008871  0.54545562  0.43672056    -0.63200
O3052       O  0.52011139  0.95480677  0.43693295    -0.71600
O3053       O  0.97006253  0.95488831  0.43677961    -0.71200
O3054       O  0.97004210  0.54542182  0.43647527    -0.62400
O3055       O  0.97041884  0.99988244  0.41199861    -0.74900
O3056       O  0.96971838  0.00040443  0.46121438    -0.73700
Cu3057     Cu  0.52188392  0.00012163  0.43681617     1.04600
Cu3058     Cu  0.96831893  0.00015251  0.43660305     1.04300
C3059       C  0.49465330  0.00037273  0.46909971     0.92600
C3060       C  0.49562208  0.99982406  0.40441787     0.91700
C3061       C  0.49504144  0.55981165  0.43659458     0.83900
C3062       C  0.49506558  0.94047884  0.43692452     0.90100
O3063       O  0.52013537  0.75043819  0.41224531    -0.73600
O3064       O  0.51928272  0.74979034  0.46140579    -0.74600
O3065       O  0.51967675  0.70486687  0.43670158    -0.63200
O3066       O  0.51969787  0.79540346  0.43700602    -0.71600
O3067       O  0.96965123  0.79550834  0.43673784    -0.71200
O3068       O  0.96962876  0.70486457  0.43655920    -0.62400
O3069       O  0.96923829  0.75003577  0.46124854    -0.74900
O3070       O  0.96997165  0.75038468  0.41200831    -0.73700
Cu3071     Cu  0.52142888  0.75012754  0.43684364     1.04600
Cu3072     Cu  0.96786525  0.75019920  0.43662459     1.04300
C3073       C  0.49518474  0.75047870  0.40443429     0.92600
C3074       C  0.49417830  0.74982684  0.46912988     0.91700
C3075       C  0.49466760  0.69049356  0.43662691     0.83900
C3076       C  0.49469885  0.80982528  0.43693633     0.90100
O3077       O  0.77935826  0.00038740  0.46142964    -0.73600
O3078       O  0.77949498  0.99983012  0.41224400    -0.74600
O3079       O  0.77968634  0.54539515  0.43666867    -0.63200
O3080       O  0.77923204  0.95484009  0.43699029    -0.71600
O3081       O  0.72918146  0.95497458  0.43704454    -0.71200
O3082       O  0.72963631  0.54560764  0.43672985    -0.62400
O3083       O  0.72932368  0.00003386  0.41229125    -0.74900
O3084       O  0.72931079  0.00055160  0.46143582    -0.73700
Cu3085     Cu  0.78118943  0.00010354  0.43683647     1.04600
Cu3086     Cu  0.72761919  0.00030727  0.43687127     1.04300
C3087       C  0.75432773  0.00053353  0.46923168     0.92600
C3088       C  0.75438343  0.99983750  0.40458262     0.91700
C3089       C  0.75472099  0.55987139  0.43665710     0.83900
C3090       C  0.75417895  0.94053700  0.43706739     0.90100
O3091       O  0.77949442  0.75060754  0.41198888    -0.73600
O3092       O  0.77990117  0.74995489  0.46120509    -0.74600
O3093       O  0.77991224  0.70495761  0.43642681    -0.63200
O3094       O  0.77943473  0.79557322  0.43675587    -0.71600
O3095       O  0.72938715  0.79541845  0.43699100    -0.71200
O3096       O  0.72986271  0.70484910  0.43654154    -0.62400
O3097       O  0.72985722  0.74964910  0.46131031    -0.74900
O3098       O  0.72932773  0.75054816  0.41214100    -0.73700
Cu3099     Cu  0.78143630  0.75028405  0.43658688     1.04600
Cu3100     Cu  0.72787094  0.75010871  0.43674568     1.04300
C3101       C  0.75433356  0.75068151  0.40437458     0.92600
C3102       C  0.75492822  0.74967843  0.46906025     0.91700
C3103       C  0.75492510  0.69053356  0.43645759     0.83900
C3104       C  0.75435751  0.80986665  0.43694668     0.90100
O3105       O  0.54539898  0.98328938  0.07234793    -0.73600
O3106       O  0.95482195  0.98358340  0.07249938    -0.74600
O3107       O  0.99999966  0.98367758  0.04783396    -0.63200
O3108       O  0.00027142  0.98328347  0.09707241    -0.71600
O3109       O  0.00038255  0.53344563  0.09712564    -0.71200
O3110       O  0.00001042  0.53371915  0.04794568    -0.62400
O3111       O  0.95487295  0.53363028  0.07259449    -0.74900
O3112       O  0.54547751  0.53333812  0.07240111    -0.73700
Cu3113     Cu  0.00011063  0.98170768  0.07244202     1.04600
Cu3114     Cu  0.50018740  0.53527027  0.07252694     1.04300
C3115       C  0.55980732  0.00827686  0.07231388     0.92600
C3116       C  0.94047490  0.00862637  0.07252224     0.91700
C3117       C  0.99998567  0.00877355  0.04008656     0.83900
C3118       C  0.00041229  0.00833414  0.10479414     0.90100
O3119       O  0.49967000  0.76631249  0.04796701    -0.73600
O3120       O  0.50016250  0.76678582  0.09714943    -0.74600
O3121       O  0.54526148  0.76698520  0.07240308    -0.63200
O3122       O  0.95466851  0.76611281  0.07266108    -0.71600
O3123       O  0.95500459  0.71606934  0.07274163    -0.71200
O3124       O  0.54558591  0.71694308  0.07261216    -0.62400
O3125       O  0.50043357  0.71662245  0.09728291    -0.74900
O3126       O  0.50025144  0.71627282  0.04811153    -0.73700
Cu3127     Cu  0.49992166  0.76829774  0.07254689     1.04600
Cu3128     Cu  0.50033764  0.71473608  0.07269767     1.04300
C3129       C  0.49991064  0.74122080  0.04023994     0.92600
C3130       C  0.50034960  0.74176248  0.10490314     0.91700
C3131       C  0.55979430  0.74204957  0.07244202     0.83900
C3132       C  0.94046598  0.74100194  0.07269394     0.90100
O3133       O  0.74995861  0.53378915  0.04812699    -0.73600
O3134       O  0.75006535  0.53337856  0.09732110    -0.74600
O3135       O  0.79535815  0.53363956  0.07265086    -0.63200
O3136       O  0.70475224  0.53334123  0.07269630    -0.71600
O3137       O  0.70490976  0.98329620  0.07252031    -0.71200
O3138       O  0.79548348  0.98359446  0.07260764    -0.62400
O3139       O  0.75011468  0.98322092  0.09722303    -0.74900
O3140       O  0.75031088  0.98374892  0.04798476    -0.73700
Cu3141     Cu  0.75003117  0.53527524  0.07271344     1.04600
Cu3142     Cu  0.75021319  0.98171622  0.07258888     1.04300
C3143       C  0.75012698  0.00886038  0.04025317     0.92600
C3144       C  0.75006062  0.00824581  0.10496948     0.91700
C3145       C  0.80979308  0.00864053  0.07257764     0.83900
C3146       C  0.69046199  0.00827892  0.07253829     0.90100
O3147       O  0.79553779  0.76602326  0.07251265    -0.73600
O3148       O  0.70496859  0.76687473  0.07233436    -0.74600
O3149       O  0.75010156  0.76683657  0.09705300    -0.63200
O3150       O  0.75040273  0.76607926  0.04785230    -0.71600
O3151       O  0.75021214  0.71604355  0.04802359    -0.71200
O3152       O  0.74977152  0.71668099  0.09726576    -0.62400
O3153       O  0.70470133  0.71683288  0.07251329    -0.74900
O3154       O  0.79530775  0.71598219  0.07274899    -0.73700
Cu3155     Cu  0.75027600  0.76819173  0.07243486     1.04600
Cu3156     Cu  0.74997962  0.71463687  0.07265111     1.04300
C3157       C  0.80979416  0.74092752  0.07263219     0.92600
C3158       C  0.69046444  0.74194377  0.07236336     0.91700
C3159       C  0.74987956  0.74186280  0.10485468     0.83900
C3160       C  0.75033478  0.74097985  0.04013084     0.90100
O3161       O  0.00021755  0.98195443  0.16208535    -0.73600
O3162       O  0.00076615  0.97951652  0.21124414    -0.74600
O3163       O  0.95501891  0.98065346  0.18673066    -0.63200
O3164       O  0.54564475  0.98103303  0.18652784    -0.71600
O3165       O  0.54532505  0.53101128  0.18793068    -0.71200
O3166       O  0.95476074  0.53069906  0.18692257    -0.62400
O3167       O  0.99869087  0.52957412  0.21199866    -0.74900
O3168       O  0.00087197  0.53209296  0.16278044    -0.73700
Cu3169     Cu  0.00041261  0.97904473  0.18662666     1.04600
Cu3170     Cu  0.99994226  0.53260059  0.18743261     1.04300
C3171       C  0.00061538  0.50737995  0.15474145     0.92600
C3172       C  0.99947560  0.00412933  0.21936432     0.91700
C3173       C  0.94052235  0.50562472  0.18677706     0.83900
C3174       C  0.55985528  0.50609312  0.18726128     0.90100
O3175       O  0.50054297  0.76855290  0.16209251    -0.73600
O3176       O  0.49869906  0.77130837  0.21121515    -0.74600
O3177       O  0.54518644  0.76999321  0.18703783    -0.63200
O3178       O  0.95458385  0.76967966  0.18626391    -0.71600
O3179       O  0.95485735  0.71967790  0.18750358    -0.71200
O3180       O  0.54544279  0.71994878  0.18744942    -0.62400
O3181       O  0.50051570  0.72120980  0.21205915    -0.74900
O3182       O  0.50013823  0.71840776  0.16288334    -0.73700
Cu3183     Cu  0.49978054  0.77163235  0.18662255     1.04600
Cu3184     Cu  0.50022926  0.71805530  0.18750480     1.04300
C3185       C  0.50040740  0.74308195  0.15480557     0.92600
C3186       C  0.49942987  0.74669117  0.21935045     0.91700
C3187       C  0.55968700  0.74502238  0.18728028     0.83900
C3188       C  0.94035631  0.74461529  0.18684449     0.90100
O3189       O  0.75129249  0.52982546  0.21216407    -0.73600
O3190       O  0.74970176  0.53200981  0.16293329    -0.74600
O3191       O  0.70500399  0.53109248  0.18796100    -0.63200
O3192       O  0.79559739  0.53075050  0.18719382    -0.71600
O3193       O  0.79540144  0.98070560  0.18696353    -0.71200
O3194       O  0.70479290  0.98109283  0.18677289    -0.62400
O3195       O  0.75023488  0.98186630  0.16231766    -0.74900
O3196       O  0.74967639  0.97977213  0.21149684    -0.73700
Cu3197     Cu  0.75037941  0.53267307  0.18758662     1.04600
Cu3198     Cu  0.75002970  0.97911713  0.18687483     1.04300
C3199       C  0.75061572  0.00443435  0.21959484     0.92600
C3200       C  0.74992997  0.50725584  0.15493160     0.91700
C3201       C  0.69052946  0.00615316  0.18737759     0.83900
C3202       C  0.80986821  0.00567549  0.18701100     0.90100
O3203       O  0.70465262  0.71987892  0.18740408    -0.73600
O3204       O  0.79525522  0.71961871  0.18750721    -0.74600
O3205       O  0.74954454  0.72094334  0.21203801    -0.63200
O3206       O  0.75002880  0.71853105  0.16283942    -0.71600
O3207       O  0.74967051  0.76867592  0.16214392    -0.71200
O3208       O  0.75110157  0.77102404  0.21129185    -0.62400
O3209       O  0.79544878  0.76963117  0.18643789    -0.74900
O3210       O  0.70485800  0.76992266  0.18702764    -0.73700
Cu3211     Cu  0.74988105  0.71798848  0.18747345     1.04600
Cu3212     Cu  0.75024392  0.77155761  0.18670065     1.04300
C3213       C  0.69038326  0.74495625  0.18724880     0.92600
C3214       C  0.80971823  0.74457037  0.18694291     0.91700
C3215       C  0.75045959  0.74636776  0.21940575     0.83900
C3216       C  0.74980651  0.74325360  0.15480126     0.90100
O3217       O  0.50023883  0.53379328  0.91198412    -0.73600
O3218       O  0.49981465  0.53436554  0.96126664    -0.74600
O3219       O  0.54531061  0.53442935  0.93669471    -0.63200
O3220       O  0.95473006  0.53384561  0.93649441    -0.71600
O3221       O  0.95493956  0.98380883  0.93677297    -0.71200
O3222       O  0.54554495  0.98439507  0.93687872    -0.62400
O3223       O  0.50016481  0.98433650  0.96136870    -0.74900
O3224       O  0.50041591  0.98363935  0.91225122    -0.73700
Cu3225     Cu  0.50000416  0.53586702  0.93660655     1.04600
Cu3226     Cu  0.50027549  0.98231573  0.93682581     1.04300
C3227       C  0.50041007  0.00857639  0.90442814     0.92600
C3228       C  0.49996979  0.00938451  0.96912401     0.91700
C3229       C  0.55979578  0.00948059  0.93677948     0.83900
C3230       C  0.94046233  0.00877868  0.93661476     0.90100
O3231       O  0.50007822  0.71574705  0.91225687    -0.73600
O3232       O  0.50003388  0.71571951  0.96151056    -0.74600
O3233       O  0.95473179  0.71598585  0.93688248    -0.63200
O3234       O  0.54534216  0.71553577  0.93691255    -0.71600
O3235       O  0.54542384  0.76557921  0.93698608    -0.71200
O3236       O  0.95485619  0.76602930  0.93684079    -0.62400
O3237       O  0.49995186  0.76575987  0.96148825    -0.74900
O3238       O  0.50029221  0.76590224  0.91229233    -0.73700
Cu3239     Cu  0.50003405  0.71399641  0.93689073     1.04600
Cu3240     Cu  0.50014477  0.76755368  0.93690229     1.04300
C3241       C  0.50022046  0.74085380  0.90457543     0.92600
C3242       C  0.49994972  0.74074740  0.96930302     0.91700
C3243       C  0.94042279  0.74105658  0.93685551     0.83900
C3244       C  0.55975356  0.74052474  0.93696256     0.90100
O3245       O  0.75013524  0.98354605  0.91245064    -0.73600
O3246       O  0.74998944  0.98442989  0.96155932    -0.74600
O3247       O  0.70474376  0.98438827  0.93696716    -0.63200
O3248       O  0.79535004  0.98383467  0.93706508    -0.71600
O3249       O  0.79547948  0.53387428  0.93683026    -0.71200
O3250       O  0.70489876  0.53442100  0.93664978    -0.62400
O3251       O  0.74999109  0.53446335  0.96142428    -0.74900
O3252       O  0.75037410  0.53369897  0.91213040    -0.73700
Cu3253     Cu  0.75003612  0.98232268  0.93702357     1.04600
Cu3254     Cu  0.75019718  0.53587528  0.93675580     1.04300
C3255       C  0.75030322  0.00845219  0.90460046     0.92600
C3256       C  0.74998344  0.00949546  0.96929715     0.91700
C3257       C  0.69045204  0.00946719  0.93676863     0.83900
C3258       C  0.80978578  0.00881045  0.93692928     0.90100
O3259       O  0.75029786  0.71579272  0.96131567    -0.73600
O3260       O  0.75010889  0.71599863  0.91206361    -0.74600
O3261       O  0.79546171  0.71614577  0.93664477    -0.63200
O3262       O  0.70489180  0.71568642  0.93675296    -0.71600
O3263       O  0.70468840  0.76572966  0.93677344    -0.71200
O3264       O  0.79529599  0.76618851  0.93675118    -0.62400
O3265       O  0.74996958  0.76615521  0.91214051    -0.74900
O3266       O  0.74997561  0.76582754  0.96135228    -0.73700
Cu3267     Cu  0.75019851  0.71416287  0.93668966     1.04600
Cu3268     Cu  0.74996957  0.76771825  0.93675408     1.04300
C3269       C  0.75015704  0.74078407  0.96914276     0.92600
C3270       C  0.75004224  0.74112667  0.90440469     0.91700
C3271       C  0.80975013  0.74120568  0.93670239     0.83900
C3272       C  0.69041954  0.74065539  0.93679009     0.90100
O3273       O  0.51945067  0.00012337  0.54781416    -0.73600
O3274       O  0.52008543  0.99985459  0.59697510    -0.74600
O3275       O  0.51975519  0.95470057  0.57235156    -0.63200
O3276       O  0.51964972  0.54529794  0.57247378    -0.71600
O3277       O  0.96960237  0.54528719  0.57266670    -0.71200
O3278       O  0.96970567  0.95470265  0.57240961    -0.62400
O3279       O  0.96992044  0.99973773  0.59715650    -0.74900
O3280       O  0.96940790  0.00025875  0.54790512    -0.73700
Cu3281     Cu  0.52147249  0.99999942  0.57238948     1.04600
Cu3282     Cu  0.96790852  0.99999739  0.57253603     1.04300
C3283       C  0.49438751  0.00024011  0.54005409     0.92600
C3284       C  0.49510437  0.99971757  0.60475828     0.91700
C3285       C  0.49473783  0.94033039  0.57238112     0.83900
C3286       C  0.49461368  0.55966287  0.57263706     0.90100
O3287       O  0.51931988  0.74959491  0.54781209    -0.73600
O3288       O  0.52014924  0.75025489  0.59698561    -0.74600
O3289       O  0.51964077  0.70465512  0.57260099    -0.63200
O3290       O  0.51975810  0.79524859  0.57223802    -0.71600
O3291       O  0.96970979  0.79532664  0.57245138    -0.71200
O3292       O  0.96959230  0.70473725  0.57273912    -0.62400
O3293       O  0.96998352  0.75027539  0.59720231    -0.74900
O3294       O  0.96927694  0.74983548  0.54797011    -0.73700
Cu3295     Cu  0.52145722  0.74993647  0.57239343     1.04600
Cu3296     Cu  0.96789297  0.75004455  0.57259503     1.04300
C3297       C  0.49421663  0.74963982  0.54008617     0.92600
C3298       C  0.49518249  0.75034360  0.60478522     0.91700
C3299       C  0.49460232  0.69032604  0.57274458     0.83900
C3300       C  0.49474706  0.80965876  0.57233429     0.90100
O3301       O  0.78026152  0.99969716  0.59708005    -0.73600
O3302       O  0.77956797  0.00022872  0.54789018    -0.74600
O3303       O  0.77983968  0.54524710  0.57257515    -0.63200
O3304       O  0.77993055  0.95464876  0.57232119    -0.71600
O3305       O  0.72988309  0.95463923  0.57268617    -0.71200
O3306       O  0.72979014  0.54523723  0.57258033    -0.62400
O3307       O  0.72952418  0.99993130  0.54802916    -0.74900
O3308       O  0.73009799  0.99995618  0.59723772    -0.73700
Cu3309     Cu  0.78164287  0.99995400  0.57246065     1.04600
Cu3310     Cu  0.72807848  0.99993806  0.57264048     1.04300
C3311       C  0.75525923  0.99977360  0.60485338     0.92600
C3312       C  0.75447588  0.00016318  0.54015790     0.91700
C3313       C  0.75480408  0.55961290  0.57256683     0.83900
C3314       C  0.75491729  0.94027475  0.57249851     0.90100
O3315       O  0.77991313  0.74976223  0.54782111    -0.73600
O3316       O  0.77991646  0.75007762  0.59701948    -0.74600
O3317       O  0.77981575  0.70462421  0.57250610    -0.63200
O3318       O  0.77992414  0.79522151  0.57230067    -0.71600
O3319       O  0.72987225  0.79527437  0.57243704    -0.71200
O3320       O  0.72976637  0.70467451  0.57240970    -0.62400
O3321       O  0.72974949  0.74996918  0.59700987    -0.74900
O3322       O  0.72986840  0.74992306  0.54780703    -0.73700
Cu3323     Cu  0.78163464  0.74991976  0.57241169     1.04600
Cu3324     Cu  0.72806788  0.74996930  0.57241220     1.04300
C3325       C  0.75490406  0.74976465  0.54001033     0.92600
C3326       C  0.75482502  0.75005495  0.60470624     0.91700
C3327       C  0.75478291  0.69027891  0.57246569     0.83900
C3328       C  0.75490669  0.80961673  0.57238008     0.90100
C3329       C  0.72782390  0.89072949  0.57433214    -0.14000
C3330       C  0.75493395  0.90684958  0.57249651     0.08100
C3331       C  0.78204996  0.89071116  0.57066210    -0.14000
C3332       C  0.78204550  0.85915828  0.57063144    -0.14000
C3333       C  0.75492423  0.84304094  0.57242952     0.08100
C3334       C  0.72781883  0.85918029  0.57429774    -0.14000
H3335       H  0.70656457  0.90248609  0.57583827     0.12100
H3336       H  0.80331278  0.90245573  0.56918778     0.12100
H3337       H  0.80330469  0.84739692  0.56913502     0.12100
H3338       H  0.70655727  0.84743773  0.57578203     0.12100
C3339       C  0.72748134  0.60917920  0.57191382    -0.14000
C3340       C  0.75478491  0.59304037  0.57253708     0.08100
C3341       C  0.78207944  0.60916438  0.57312348    -0.14000
C3342       C  0.78207275  0.64071055  0.57309975    -0.14000
C3343       C  0.75477254  0.65685178  0.57248531     0.08100
C3344       C  0.72747473  0.64073029  0.57188854    -0.14000
H3345       H  0.70606363  0.59743982  0.57142752     0.12100
H3346       H  0.80350432  0.59741704  0.57362339     0.12100
H3347       H  0.80349339  0.65244479  0.57358219     0.12100
H3348       H  0.70605253  0.65248247  0.57138515     0.12100
C3349       C  0.52205397  0.89075672  0.57297297    -0.14000
C3350       C  0.49474985  0.90690150  0.57239828     0.08100
C3351       C  0.96744969  0.89078152  0.57184984    -0.14000
C3352       C  0.96745574  0.85923446  0.57182708    -0.14000
C3353       C  0.49476096  0.84308756  0.57235265     0.08100
C3354       C  0.52206011  0.85920488  0.57294769    -0.14000
H3355       H  0.54347450  0.90249227  0.57344869     0.12100
H3356       H  0.94602270  0.90253228  0.57140688     0.12100
H3357       H  0.94603088  0.84750373  0.57137038     0.12100
H3358       H  0.54348257  0.84744847  0.57341016     0.12100
C3359       C  0.52190684  0.60920783  0.57298989    -0.14000
C3360       C  0.49459089  0.59308898  0.57280416     0.08100
C3361       C  0.96726492  0.60923213  0.57277135    -0.14000
C3362       C  0.96726099  0.64078330  0.57281519    -0.14000
C3363       C  0.49458296  0.65689957  0.57288963     0.08100
C3364       C  0.52190293  0.64075285  0.57303471    -0.14000
H3365       H  0.54334930  0.59745795  0.57306645     0.12100
H3366       H  0.94582667  0.59749742  0.57266372     0.12100
H3367       H  0.94582150  0.65253914  0.57273409     0.12100
H3368       H  0.54334443  0.65248165  0.57313769     0.12100
C3369       C  0.89084029  0.71386848  0.93658917    -0.14000
C3370       C  0.90699397  0.74115433  0.93682668     0.08100
C3371       C  0.89088363  0.76850067  0.93701835    -0.14000
C3372       C  0.85932201  0.76854445  0.93696897    -0.14000
C3373       C  0.84317913  0.74124199  0.93672768     0.08100
C3374       C  0.85930052  0.71391228  0.93653745    -0.14000
H3375       H  0.90255945  0.69241280  0.93643238     0.12100
H3376       H  0.90265163  0.78991684  0.93721077     0.12100
H3377       H  0.84758088  0.78998874  0.93712828     0.12100
H3378       H  0.84755483  0.69248436  0.93634808     0.12100
C3379       C  0.60934939  0.71318129  0.93684553    -0.14000
C3380       C  0.59318079  0.74049034  0.93696584     0.08100
C3381       C  0.60927425  0.76781877  0.93704974    -0.14000
C3382       C  0.64081352  0.76785347  0.93699562    -0.14000
C3383       C  0.65699253  0.74056038  0.93685803     0.08100
C3384       C  0.64090962  0.71321601  0.93679233    -0.14000
H3385       H  0.59762896  0.69173592  0.93677835     0.12100
H3386       H  0.59750768  0.78924967  0.93714656     0.12100
H3387       H  0.65251292  0.78930977  0.93705771     0.12100
H3388       H  0.65269719  0.69179614  0.93669032     0.12100
C3389       C  0.89087420  0.53592793  0.93541031    -0.14000
C3390       C  0.90703059  0.00870850  0.93660853     0.08100
C3391       C  0.89092075  0.98147917  0.93786845    -0.14000
C3392       C  0.85935791  0.98149424  0.93798177    -0.14000
C3393       C  0.84321398  0.00873786  0.93683306     0.08100
C3394       C  0.85933213  0.53594341  0.93552454    -0.14000
H3395       H  0.90259610  0.55728865  0.93437422     0.12100
H3396       H  0.90269229  0.96012166  0.93882762     0.12100
H3397       H  0.84761388  0.96014456  0.93901100     0.12100
H3398       H  0.84758158  0.55731179  0.93455857     0.12100
C3399       C  0.60936761  0.98230700  0.93753557    -0.14000
C3400       C  0.59321857  0.00957620  0.93673277     0.08100
C3401       C  0.60932601  0.53684920  0.93584703    -0.14000
C3402       C  0.64089164  0.53684227  0.93582288    -0.14000
C3403       C  0.65702636  0.00956244  0.93669039     0.08100
C3404       C  0.64090045  0.98229989  0.93751314    -0.14000
H3405       H  0.59764772  0.96089841  0.93822038     0.12100
H3406       H  0.59755481  0.55824366  0.93516397     0.12100
H3407       H  0.65264291  0.55823435  0.93513017     0.12100
H3408       H  0.65263833  0.96088816  0.93818744     0.12100
C3409       C  0.89084208  0.71722238  0.18623694    -0.14000
C3410       C  0.90693847  0.74453248  0.18679206     0.08100
C3411       C  0.89078404  0.77182350  0.18735752    -0.14000
C3412       C  0.85924846  0.77181163  0.18740097    -0.14000
C3413       C  0.84313839  0.74450837  0.18687255     0.08100
C3414       C  0.85928124  0.71721061  0.18627749    -0.14000
H3415       H  0.90262240  0.69581715  0.18575410     0.12100
H3416       H  0.90250085  0.79325389  0.18782817     0.12100
H3417       H  0.84749751  0.79323353  0.18789636     0.12100
H3418       H  0.84753685  0.69579581  0.18581966     0.12100
C3419       C  0.60926461  0.71787331  0.18876907    -0.14000
C3420       C  0.59312275  0.74507231  0.18732907     0.08100
C3421       C  0.60925197  0.77225248  0.18587710    -0.14000
C3422       C  0.64081695  0.77223263  0.18586434    -0.14000
C3423       C  0.65694899  0.74503231  0.18730242     0.08100
C3424       C  0.64081142  0.71785334  0.18875551    -0.14000
H3425       H  0.59752927  0.69654193  0.18993398     0.12100
H3426       H  0.59749261  0.79357823  0.18469906     0.12100
H3427       H  0.65257449  0.79354585  0.18467902     0.12100
H3428       H  0.65254947  0.69650967  0.18991291     0.12100
C3429       C  0.89096757  0.53281699  0.18793918    -0.14000
C3430       C  0.90709995  0.00558585  0.18670228     0.08100
C3431       C  0.89097514  0.97837127  0.18546938    -0.14000
C3432       C  0.85941315  0.97838377  0.18554156    -0.14000
C3433       C  0.84329236  0.00561112  0.18684940     0.08100
C3434       C  0.85942911  0.53282993  0.18801135    -0.14000
H3435       H  0.90270346  0.55417646  0.18892445     0.12100
H3436       H  0.90273435  0.95701939  0.18444835     0.12100
H3437       H  0.84764998  0.95703965  0.18456715     0.12100
H3438       H  0.84769870  0.55419759  0.18904272     0.12100
C3439       C  0.60945993  0.97932736  0.18469710    -0.14000
C3440       C  0.59328534  0.00620190  0.18729687     0.08100
C3441       C  0.60937257  0.53311274  0.18989931    -0.14000
C3442       C  0.64094326  0.53312730  0.18992984    -0.14000
C3443       C  0.65710213  0.00622970  0.18735905     0.08100
C3444       C  0.64100060  0.97934045  0.18473025    -0.14000
H3445       H  0.59775060  0.95823488  0.18257922     0.12100
H3446       H  0.59757437  0.55418260  0.19197254     0.12100
H3447       H  0.65268598  0.55420742  0.19202608     0.12100
H3448       H  0.65276798  0.95825961  0.18263475     0.12100
C3449       C  0.74910300  0.76810657  0.01317489    -0.14000
C3450       C  0.75034431  0.74084801  0.02197118     0.08100
C3451       C  0.75152180  0.71352679  0.01323833    -0.14000
C3452       C  0.75145945  0.71348529  0.99609555    -0.14000
C3453       C  0.75021206  0.74076059  0.98730512     0.08100
C3454       C  0.74903185  0.76806479  0.99604613    -0.14000
H3455       H  0.74812792  0.78954669  0.01952271     0.12100
H3456       H  0.75252238  0.69213712  0.01964312     0.12100
H3457       H  0.75241991  0.69205853  0.98973401     0.12100
H3458       H  0.74801751  0.78946865  0.98965637     0.12100
C3459       C  0.74977483  0.74211392  0.12244300    -0.13900
C3460       C  0.74974817  0.74249630  0.13721979    -0.15500
C3461       C  0.75234836  0.98196533  0.01327183    -0.14000
C3462       C  0.75010289  0.00908924  0.02210270     0.08100
C3463       C  0.74782934  0.53641681  0.01341419    -0.14000
C3464       C  0.74779077  0.53660024  0.99627346    -0.14000
C3465       C  0.75001554  0.00945875  0.98745104     0.08100
C3466       C  0.75230423  0.98214972  0.99614806    -0.14000
H3467       H  0.75420444  0.96054011  0.01958621     0.12100
H3468       H  0.74600910  0.55770688  0.01985526     0.12100
H3469       H  0.74594553  0.55800775  0.98994113     0.12100
H3470       H  0.75413620  0.96084263  0.98972474     0.12100
C3471       C  0.74997312  0.00813380  0.12256270    -0.13900
C3472       C  0.74990603  0.50791766  0.13734340    -0.15500
C3473       C  0.89086575  0.76815297  0.07233499    -0.14000
C3474       C  0.90703792  0.74086262  0.07265431     0.08100
C3475       C  0.89094665  0.71352419  0.07291102    -0.14000
C3476       C  0.85937632  0.71350516  0.07289527    -0.14000
C3477       C  0.84322334  0.74082428  0.07261967     0.08100
C3478       C  0.85933474  0.76813389  0.07231673    -0.14000
H3479       H  0.90256491  0.78960494  0.07210097     0.12100
H3480       H  0.90273415  0.69210726  0.07314125     0.12100
H3481       H  0.84763706  0.69207381  0.07311367     0.12100
H3482       H  0.84758783  0.78957158  0.07207138     0.12100
C3483       C  0.60935127  0.76947912  0.07205928    -0.14000
C3484       C  0.59322234  0.74216191  0.07229384     0.08100
C3485       C  0.60935753  0.71484429  0.07240896    -0.14000
C3486       C  0.64088593  0.71481200  0.07238333    -0.14000
C3487       C  0.65703684  0.74209766  0.07224319     0.08100
C3488       C  0.64092399  0.76944678  0.07203386    -0.14000
H3489       H  0.59759265  0.79091504  0.07193050     0.12100
H3490       H  0.59762987  0.69340484  0.07255851     0.12100
H3491       H  0.65260007  0.69335288  0.07251665     0.12100
H3492       H  0.65269677  0.79086270  0.07188835     0.12100
C3493       C  0.49707964  0.76804979  0.99615004    -0.14000
C3494       C  0.49985022  0.74081012  0.98745324     0.08100
C3495       C  0.00254983  0.71368137  0.99627195    -0.14000
C3496       C  0.00253928  0.71380323  0.01340596    -0.14000
C3497       C  0.49981953  0.74105717  0.02209658     0.08100
C3498       C  0.49706041  0.76817108  0.01327679    -0.14000
H3499       H  0.49486184  0.78932798  0.98972576     0.12100
H3500       H  0.00478541  0.69232024  0.98993847     0.12100
H3501       H  0.00476626  0.69253300  0.01983775     0.12100
H3502       H  0.49483422  0.78954059  0.01960351     0.12100
C3503       C  0.50048971  0.74223506  0.13724154    -0.13900
C3504       C  0.50045452  0.74190254  0.12247434    -0.15500
C3505       C  0.89091863  0.98134330  0.07254040    -0.14000
C3506       C  0.90704288  0.00865694  0.07244430     0.08100
C3507       C  0.89089872  0.53598227  0.07226287    -0.14000
C3508       C  0.85934151  0.53598713  0.07226691    -0.14000
C3509       C  0.84322367  0.00866749  0.07245584     0.08100
C3510       C  0.85937161  0.98134874  0.07254481    -0.14000
H3511       H  0.90266559  0.95990137  0.07264782     0.12100
H3512       H  0.90263832  0.55741581  0.07214042     0.12100
H3513       H  0.84758281  0.55742238  0.07215064     0.12100
H3514       H  0.84764268  0.95990863  0.07265787     0.12100
C3515       C  0.60935063  0.53553184  0.07206518    -0.14000
C3516       C  0.59323127  0.00821803  0.07220296     0.08100
C3517       C  0.60937101  0.98088998  0.07230351    -0.14000
C3518       C  0.64092907  0.98088960  0.07237737    -0.14000
C3519       C  0.65703850  0.00821729  0.07235237     0.08100
C3520       C  0.64088990  0.53553083  0.07214081    -0.14000
H3521       H  0.59760505  0.55697397  0.07194293     0.12100
H3522       H  0.59762965  0.95945642  0.07237871     0.12100
H3523       H  0.65269326  0.95945687  0.07250001     0.12100
H3524       H  0.65261332  0.55697363  0.07206541     0.12100
C3525       C  0.49921708  0.53637898  0.01323860    -0.14000
C3526       C  0.99997094  0.00897603  0.02193432     0.08100
C3527       C  0.00075087  0.98176463  0.01310759    -0.14000
C3528       C  0.00074827  0.98194090  0.99598200    -0.14000
C3529       C  0.49996117  0.00932974  0.98727988     0.08100
C3530       C  0.49920849  0.53655287  0.99609982    -0.14000
H3531       H  0.49860374  0.55774490  0.01967186     0.12100
H3532       H  0.00138940  0.96027304  0.01942576     0.12100
H3533       H  0.00138276  0.96056163  0.98956281     0.12100
H3534       H  0.49859210  0.55803055  0.98976775     0.12100
C3535       C  0.00059924  0.50828927  0.12238132    -0.13900
C3536       C  0.00068999  0.50811083  0.13715913    -0.15500
C3537       C  0.78226864  0.75081499  0.49596822    -0.14000
C3538       C  0.75498513  0.74946317  0.48720987     0.08100
C3539       C  0.72769630  0.74804106  0.49596914    -0.14000
C3540       C  0.72767464  0.74810119  0.51309689    -0.14000
C3541       C  0.75494402  0.74957262  0.52185904     0.08100
C3542       C  0.78224728  0.75086692  0.51310273    -0.14000
H3543       H  0.80367753  0.75193873  0.48958983     0.12100
H3544       H  0.70628695  0.74690793  0.48959431     0.12100
H3545       H  0.70625841  0.74699571  0.51946849     0.12100
H3546       H  0.80364843  0.75201869  0.51948447     0.12100
C3547       C  0.78144005  0.89099798  0.43610882    -0.14000
C3548       C  0.75416711  0.90710913  0.43714939     0.08100
C3549       C  0.72693421  0.89095687  0.43821544    -0.14000
C3550       C  0.72698127  0.85939557  0.43818777    -0.14000
C3551       C  0.75426143  0.84329506  0.43708888     0.08100
C3552       C  0.78148683  0.85945899  0.43607816    -0.14000
H3553       H  0.80281173  0.90275287  0.43525349     0.12100
H3554       H  0.70554254  0.90269279  0.43907507     0.12100
H3555       H  0.70562001  0.84761804  0.43902630     0.12100
H3556       H  0.80288913  0.84774751  0.43520214     0.12100
C3557       C  0.78215729  0.60936041  0.43568822    -0.14000
C3558       C  0.75484142  0.59329773  0.43656751     0.08100
C3559       C  0.72760124  0.60949634  0.43737694    -0.14000
C3560       C  0.72765691  0.64103203  0.43731548    -0.14000
C3561       C  0.75495334  0.65710744  0.43644319     0.08100
C3562       C  0.78221297  0.64092184  0.43562601    -0.14000
H3563       H  0.80353607  0.59755473  0.43503171     0.12100
H3564       H  0.70617522  0.59781477  0.43809312     0.12100
H3565       H  0.70626671  0.65281209  0.43799152     0.12100
H3566       H  0.80362798  0.65262904  0.43492959     0.12100
C3567       C  0.72699464  0.50014563  0.49614276    -0.14000
C3568       C  0.75431194  0.00061416  0.48737350     0.08100
C3569       C  0.78163677  0.00104576  0.49611274    -0.14000
C3570       C  0.78166299  0.00093027  0.51323503    -0.14000
C3571       C  0.75436579  0.00037324  0.52201169     0.08100
C3572       C  0.72702089  0.50002280  0.51327571    -0.14000
H3573       H  0.70555043  0.49980596  0.48977451     0.12100
H3574       H  0.80306517  0.00144438  0.48972800     0.12100
H3575       H  0.80311765  0.00125292  0.51959190     0.12100
H3576       H  0.70560235  0.49960875  0.51966997     0.12100
C3577       C  0.96682063  0.75174408  0.49604184    -0.14000
C3578       C  0.49406503  0.74963838  0.48728002     0.08100
C3579       C  0.52129328  0.74739984  0.49603621    -0.14000
C3580       C  0.52130470  0.74733990  0.51315896    -0.14000
C3581       C  0.49408832  0.74951836  0.52193209     0.08100
C3582       C  0.96683207  0.75168399  0.51318381    -0.14000
H3583       H  0.94546142  0.75354338  0.48966008     0.12100
H3584       H  0.54266661  0.74566451  0.48966212     0.12100
H3585       H  0.54268609  0.74556624  0.51952036     0.12100
H3586       H  0.94548047  0.75344476  0.51957716     0.12100
C3587       C  0.52225484  0.89083293  0.43715415    -0.14000
C3588       C  0.49498383  0.90705571  0.43706427     0.08100
C3589       C  0.96761097  0.89101961  0.43706544    -0.14000
C3590       C  0.96751089  0.85947318  0.43706593    -0.14000
C3591       C  0.49478244  0.84324958  0.43706823     0.08100
C3592       C  0.52215475  0.85928588  0.43715675    -0.14000
H3593       H  0.54372958  0.90250151  0.43718271     0.12100
H3594       H  0.94620391  0.90283561  0.43702715     0.12100
H3595       H  0.94603547  0.84780568  0.43702898     0.12100
H3596       H  0.54356109  0.84746920  0.43718666     0.12100
C3597       C  0.52221641  0.60944330  0.43684028    -0.14000
C3598       C  0.49495201  0.59324410  0.43661184     0.08100
C3599       C  0.96757937  0.60931366  0.43643277    -0.14000
C3600       C  0.96747495  0.64086498  0.43644574    -0.14000
C3601       C  0.49474214  0.65706248  0.43663537     0.08100
C3602       C  0.52211196  0.64099233  0.43685169    -0.14000
H3603       H  0.54368995  0.59775432  0.43700725     0.12100
H3604       H  0.94617512  0.59751908  0.43627507     0.12100
H3605       H  0.94600211  0.65255643  0.43629545     0.12100
H3606       H  0.54351691  0.65278500  0.43702650     0.12100
C3607       C  0.52176968  0.49954551  0.49604055    -0.14000
C3608       C  0.49450197  0.00041046  0.48724859     0.08100
C3609       C  0.96714992  0.00124675  0.49597443    -0.14000
C3610       C  0.96708057  0.00120786  0.51311373    -0.14000
C3611       C  0.49436298  0.00033108  0.52189942     0.08100
C3612       C  0.52169910  0.49950658  0.51316384    -0.14000
H3613       H  0.54323149  0.49885400  0.48969598     0.12100
H3614       H  0.94575377  0.00194084  0.48956671     0.12100
H3615       H  0.94563544  0.00187633  0.51947491     0.12100
H3616       H  0.54311186  0.49878959  0.51955397     0.12100
C3617       C  0.76961549  0.76891892  0.26280991    -0.14000
C3618       C  0.75165103  0.74889318  0.27187225     0.08100
C3619       C  0.73326099  0.72807828  0.26363497    -0.14000
C3620       C  0.73326828  0.72690477  0.24651806    -0.14000
C3621       C  0.75082941  0.74727180  0.23742752     0.08100
C3622       C  0.76879069  0.76848113  0.24568212    -0.14000
H3623       H  0.78386956  0.78519193  0.26899256     0.12100
H3624       H  0.71934922  0.71238439  0.27046058     0.12100
H3625       H  0.71918374  0.71044968  0.24036525     0.12100
H3626       H  0.78258494  0.78430235  0.23887509     0.12100
C3627       C  0.75395327  0.75087488  0.37202294    -0.13900
C3628       C  0.75415343  0.75085799  0.38679573    -0.15500
C3629       C  0.72590731  0.89103574  0.32218750    -0.14000
C3630       C  0.75323559  0.90713834  0.32177890     0.08100
C3631       C  0.78051924  0.89097392  0.32118908    -0.14000
C3632       C  0.78046969  0.85941431  0.32113190    -0.14000
C3633       C  0.75313376  0.84332245  0.32164931     0.08100
C3634       C  0.72585699  0.85949612  0.32211396    -0.14000
H3635       H  0.70448510  0.90279635  0.32261544     0.12100
H3636       H  0.80195530  0.90269601  0.32082403     0.12100
H3637       H  0.80188127  0.84763147  0.32072119     0.12100
H3638       H  0.70441244  0.84779252  0.32250170     0.12100
C3639       C  0.77992077  0.60942902  0.32261277    -0.14000
C3640       C  0.75258770  0.59332122  0.32269670     0.08100
C3641       C  0.72527795  0.60947860  0.32270428    -0.14000
C3642       C  0.72531431  0.64103702  0.32263459    -0.14000
C3643       C  0.75266112  0.65713556  0.32253976     0.08100
C3644       C  0.77995685  0.64096861  0.32252487    -0.14000
H3645       H  0.80135944  0.59767228  0.32258797     0.12100
H3646       H  0.70383451  0.59775159  0.32275368     0.12100
H3647       H  0.70388578  0.65281311  0.32263083     0.12100
H3648       H  0.80140984  0.65267710  0.32245179     0.12100
C3649       C  0.73659995  0.97944377  0.26328248    -0.14000
C3650       C  0.75190839  0.00180729  0.27213330     0.08100
C3651       C  0.76677331  0.52503943  0.26371007    -0.14000
C3652       C  0.76590114  0.52620128  0.24659251    -0.14000
C3653       C  0.75099724  0.00356524  0.23766517     0.08100
C3654       C  0.73657408  0.98002859  0.24614672    -0.14000
H3655       H  0.72509544  0.96131301  0.26963429     0.12100
H3656       H  0.77859719  0.54253389  0.27040012     0.12100
H3657       H  0.77728622  0.54449186  0.24031865     0.12100
H3658       H  0.72487326  0.96237539  0.23952328     0.12100
C3659       C  0.75428656  0.99963727  0.38701455    -0.13900
C3660       C  0.75401782  0.99955623  0.37224801    -0.15500
C3661       C  0.97515142  0.76324641  0.26272599    -0.14000
C3662       C  0.49823523  0.74926208  0.27178003     0.08100
C3663       C  0.52173793  0.73453560  0.26342727    -0.14000
C3664       C  0.52186007  0.73333394  0.24631158    -0.14000
C3665       C  0.49904378  0.74768349  0.23731718     0.08100
C3666       C  0.97583411  0.76288528  0.24558967    -0.14000
H3667       H  0.95684830  0.77480908  0.26890237     0.12100
H3668       H  0.53970305  0.72348791  0.27014661     0.12100
H3669       H  0.53997804  0.72158720  0.24007110     0.12100
H3670       H  0.95800235  0.77398521  0.23878484     0.12100
C3671       C  0.49591944  0.75059063  0.37207686    -0.13900
C3672       C  0.49551819  0.75058793  0.38685123    -0.15500
C3673       C  0.96952760  0.89093888  0.32226607    -0.14000
C3674       C  0.49679085  0.90711517  0.32185663     0.08100
C3675       C  0.52415007  0.89103090  0.32142969    -0.14000
C3676       C  0.52424585  0.85948389  0.32145107    -0.14000
C3677       C  0.49698431  0.84330568  0.32190974     0.08100
C3678       C  0.96962373  0.85938975  0.32229953    -0.14000
H3679       H  0.94807071  0.90264588  0.32261529     0.12100
H3680       H  0.54555436  0.90281191  0.32108081     0.12100
H3681       H  0.54570636  0.84778116  0.32112021     0.12100
H3682       H  0.94822119  0.84760778  0.32266263     0.12100
C3683       C  0.96967369  0.60948073  0.32240248    -0.14000
C3684       C  0.49697880  0.59329718  0.32248234     0.08100
C3685       C  0.52431518  0.60938147  0.32256054    -0.14000
C3686       C  0.52434262  0.64093483  0.32254216    -0.14000
C3687       C  0.49703379  0.65711534  0.32243053     0.08100
C3688       C  0.96970131  0.64102775  0.32236693    -0.14000
H3689       H  0.94821683  0.59777877  0.32233694     0.12100
H3690       H  0.54573985  0.59759908  0.32262631     0.12100
H3691       H  0.54579602  0.65264345  0.32258996     0.12100
H3692       H  0.94827313  0.65280371  0.32228815     0.12100
C3693       C  0.51672293  0.98203530  0.26309761    -0.14000
C3694       C  0.99747375  0.00134217  0.27185174     0.08100
C3695       C  0.97878250  0.52145969  0.26327737    -0.14000
C3696       C  0.97982826  0.52273457  0.24616214    -0.14000
C3697       C  0.99877143  0.00314069  0.23738938     0.08100
C3698       C  0.51695785  0.98254106  0.24596228    -0.14000
H3699       H  0.53123064  0.96629327  0.26952185     0.12100
H3700       H  0.96386967  0.53660825  0.26984436     0.12100
H3701       H  0.96550844  0.53866997  0.23975489     0.12100
H3702       H  0.53176457  0.96727945  0.23940355     0.12100
C3703       C  0.49616519  0.99961203  0.37206648    -0.13900
C3704       C  0.49590834  0.99965527  0.38683923    -0.15500
C3705       C  0.75011955  0.74167435  0.87203094    -0.13900
C3706       C  0.75007436  0.74127324  0.88681112    -0.15500
C3707       C  0.75039610  0.00797356  0.88702182    -0.13900
C3708       C  0.75042214  0.00722281  0.87225300    -0.15500
C3709       C  0.89087612  0.77104281  0.82413434    -0.14000
C3710       C  0.90705590  0.74393154  0.82238881     0.08100
C3711       C  0.89097958  0.71679380  0.82060106    -0.14000
C3712       C  0.85942189  0.71678500  0.82053986    -0.14000
C3713       C  0.84325433  0.74391711  0.82224780     0.08100
C3714       C  0.85933580  0.77103717  0.82405464    -0.14000
H3715       H  0.90257754  0.79233200  0.82557622     0.12100
H3716       H  0.90277075  0.69553151  0.81920219     0.12100
H3717       H  0.84769769  0.69550829  0.81909480     0.12100
H3718       H  0.84755606  0.79230540  0.82545424     0.12100
C3719       C  0.60933841  0.71729052  0.82123727    -0.14000
C3720       C  0.59324365  0.74459888  0.82214732     0.08100
C3721       C  0.60942043  0.77182207  0.82305328    -0.14000
C3722       C  0.64098337  0.77172528  0.82305499    -0.14000
C3723       C  0.65706946  0.74440507  0.82213470     0.08100
C3724       C  0.64088361  0.71719512  0.82122540    -0.14000
H3725       H  0.59756525  0.69591705  0.82051254     0.12100
H3726       H  0.59770462  0.79323846  0.82379172     0.12100
H3727       H  0.65277355  0.79308925  0.82378518     0.12100
H3728       H  0.65258037  0.69576738  0.82049684     0.12100
C3729       C  0.50029536  0.74096779  0.88697702    -0.13900
C3730       C  0.50032961  0.74143220  0.87219403    -0.15500
C3731       C  0.89104481  0.53408926  0.82350283    -0.14000
C3732       C  0.90713608  0.00680831  0.82218147     0.08100
C3733       C  0.89096302  0.97967230  0.82078147    -0.14000
C3734       C  0.85947625  0.97969990  0.82077272    -0.14000
C3735       C  0.84331325  0.00686349  0.82216662     0.08100
C3736       C  0.85941829  0.53411653  0.82349629    -0.14000
H3737       H  0.90287218  0.55537532  0.82462353     0.12100
H3738       H  0.90263969  0.95829370  0.81964722     0.12100
H3739       H  0.84779156  0.95833844  0.81963697     0.12100
H3740       H  0.84760085  0.55542089  0.82461569     0.12100
C3741       C  0.60944588  0.97513162  0.82255465    -0.14000
C3742       C  0.59331095  0.00248364  0.82240409     0.08100
C3743       C  0.60945207  0.52976678  0.82242794    -0.14000
C3744       C  0.64093153  0.52979223  0.82252104    -0.14000
C3745       C  0.65713868  0.00253617  0.82258688     0.08100
C3746       C  0.64107154  0.97515754  0.82264456    -0.14000
H3747       H  0.59765893  0.95372356  0.82257480     0.12100
H3748       H  0.59776282  0.55123962  0.82235664     0.12100
H3749       H  0.65256728  0.55128186  0.82250713     0.12100
H3750       H  0.65291269  0.95376692  0.82272042     0.12100
C3751       C  0.50056172  0.00743214  0.87208378    -0.13900
C3752       C  0.50055840  0.00816737  0.88685126    -0.15500
C3753       C  0.73004508  0.76534928  0.74611736    -0.14000
C3754       C  0.75131960  0.74832938  0.73732291     0.08100
C3755       C  0.77213336  0.73037289  0.74589513    -0.14000
C3756       C  0.77138494  0.72908286  0.76300964    -0.14000
C3757       C  0.75052878  0.74656548  0.77179674     0.08100
C3758       C  0.73002313  0.76490011  0.76326247    -0.14000
H3759       H  0.71384311  0.77939058  0.73972841     0.12100
H3760       H  0.78862303  0.71695102  0.73933127     0.12100
H3761       H  0.78743297  0.71488101  0.76941137     0.12100
H3762       H  0.71369436  0.77845133  0.76986643     0.12100
C3763       C  0.75452866  0.75014086  0.63706321    -0.13900
C3764       C  0.75478228  0.75012121  0.62228839    -0.15500
C3765       C  0.72536681  0.85906348  0.68694137    -0.14000
C3766       C  0.75268983  0.84290176  0.68722129     0.08100
C3767       C  0.77999321  0.85901949  0.68757640    -0.14000
C3768       C  0.77998845  0.89056507  0.68761691    -0.14000
C3769       C  0.75267954  0.90673657  0.68731733     0.08100
C3770       C  0.72536147  0.89062749  0.68699603    -0.14000
H3771       H  0.70393160  0.84733192  0.68667249     0.12100
H3772       H  0.80143090  0.84726766  0.68780068     0.12100
H3773       H  0.80143400  0.90227756  0.68787479     0.12100
H3774       H  0.70393437  0.90239797  0.68675657     0.12100
C3775       C  0.72597025  0.60901838  0.68674214    -0.14000
C3776       C  0.75332449  0.59292197  0.68698752     0.08100
C3777       C  0.78060930  0.60907549  0.68724874    -0.14000
C3778       C  0.78053149  0.64062725  0.68719995    -0.14000
C3779       C  0.75316694  0.65671511  0.68690681     0.08100
C3780       C  0.72589190  0.64055280  0.68671152    -0.14000
H3781       H  0.70454827  0.59725693  0.68657342     0.12100
H3782       H  0.80206326  0.59735142  0.68746328     0.12100
H3783       H  0.80194315  0.65240653  0.68739069     0.12100
H3784       H  0.70442799  0.65225888  0.68651306     0.12100
C3785       C  0.76927644  0.98112296  0.74652643    -0.14000
C3786       C  0.75100693  0.00092846  0.73748474     0.08100
C3787       C  0.73233772  0.52146186  0.74578258    -0.14000
C3788       C  0.73239108  0.52256210  0.76292004    -0.14000
C3789       C  0.75028849  0.00239209  0.77197985     0.08100
C3790       C  0.76850907  0.98147537  0.76365889    -0.14000
H3791       H  0.78377955  0.96508899  0.74031956     0.12100
H3792       H  0.71820431  0.53702505  0.73899351     0.12100
H3793       H  0.71811748  0.53881956  0.76911067     0.12100
H3794       H  0.78258801  0.96582561  0.77042054     0.12100
C3795       C  0.75539676  0.99964857  0.62244242    -0.13900
C3796       C  0.75515205  0.99957854  0.63722171    -0.15500
C3797       C  0.97552911  0.76217079  0.74650680    -0.14000
C3798       C  0.99897096  0.74871527  0.73748544     0.08100
C3799       C  0.52282045  0.73465030  0.74589895    -0.14000
C3800       C  0.52290133  0.73353495  0.76302908    -0.14000
C3801       C  0.49966991  0.74731372  0.77198163     0.08100
C3802       C  0.97613615  0.76188462  0.76364565    -0.14000
H3803       H  0.95695564  0.77324085  0.74030321     0.12100
H3804       H  0.54109336  0.72402916  0.73922117     0.12100
H3805       H  0.54127205  0.72226868  0.76931194     0.12100
H3806       H  0.95797773  0.77253574  0.77040654     0.12100
C3807       C  0.99547296  0.75047221  0.62236724    -0.13900
C3808       C  0.99586276  0.75045690  0.63714206    -0.15500
C3809       C  0.52644731  0.89055151  0.68665981    -0.14000
C3810       C  0.99914681  0.90666960  0.68764261     0.08100
C3811       C  0.97195432  0.89051399  0.68883948    -0.14000
C3812       C  0.97196318  0.85901503  0.68885170    -0.14000
C3813       C  0.99916509  0.84284320  0.68766672     0.08100
C3814       C  0.52645604  0.85894399  0.68667151    -0.14000
H3815       H  0.54779240  0.90234251  0.68576861     0.12100
H3816       H  0.95054138  0.90220752  0.68971694     0.12100
H3817       H  0.95055658  0.84733474  0.68973685     0.12100
H3818       H  0.54780791  0.84713929  0.68578746     0.12100
C3819       C  0.96849744  0.60898153  0.68522176    -0.14000
C3820       C  0.99566013  0.59285443  0.68696827     0.08100
C3821       C  0.52273596  0.60898491  0.68882457    -0.14000
C3822       C  0.52274948  0.64048275  0.68881470    -0.14000
C3823       C  0.99568745  0.65666529  0.68695089     0.08100
C3824       C  0.96851084  0.64058971  0.68521265    -0.14000
H3825       H  0.94725699  0.59719214  0.68376278     0.12100
H3826       H  0.54401912  0.59726637  0.69032036     0.12100
H3827       H  0.54404301  0.65216113  0.69030528     0.12100
H3828       H  0.94728130  0.65241913  0.68374895     0.12100
C3829       C  0.52306023  0.51421407  0.74586592    -0.14000
C3830       C  0.99889380  0.00070650  0.73746247     0.08100
C3831       C  0.97520493  0.98772388  0.74649485    -0.14000
C3832       C  0.97586146  0.98793871  0.76363041    -0.14000
C3833       C  0.99971476  0.00196192  0.77195035     0.08100
C3834       C  0.52321594  0.51525178  0.76299405    -0.14000
H3835       H  0.54155050  0.52443032  0.73918423     0.12100
H3836       H  0.95639781  0.97706040  0.74030402     0.12100
H3837       H  0.95751626  0.97764667  0.77040200     0.12100
H3838       H  0.54185182  0.52605662  0.76927121     0.12100
C3839       C  0.49538270  0.99952746  0.62234271    -0.13900
C3840       C  0.49582435  0.99940810  0.63711838    -0.15500
loop_ 
_geom_bond_atom_site_label_1 
_geom_bond_atom_site_label_2 
_geom_bond_distance 
_geom_bond_site_symmetry_2 
_ccdc_geom_bond_type 
O1           Cu9   2.009       .  S
O1         C1931   1.276       .  A
O2           Cu9   2.009       .  S
O2          C972   1.278   1_565  A
O3           Cu9   2.013   1_545  S
O3         C1933   1.279       .  A
O4         Cu969   2.005       .  S
O4         C1934   1.278       .  A
O5          Cu10   2.013       .  S
O5           C14   1.279   1_455  A
O6         Cu970   2.005       .  S
O6           C13   1.278   1_455  A
O7          Cu10   2.008       .  S
O7         C1932   1.278   1_455  A
O8          Cu10   2.011       .  S
O8          C971   1.276   1_455  A
Cu9         O964   2.005       .  S
Cu9       Cu2890   2.374   1_565  S
Cu10        O966   2.005       .  S
Cu10      Cu2889   2.374   1_455  S
C11        O1921   1.276       .  A
C11         O968   1.276   1_655  A
C11        C1920   1.435       .  S
C12         O962   1.278       .  A
C12        O1927   1.278       .  A
C12         C950   1.476       .  S
C13        O1923   1.279       .  A
C13        C2860   1.481       .  S
C14        O1924   1.278       .  A
C14        C2850   1.481       .  S
O15         Cu23   2.009       .  S
O15          C25   1.278       .  A
O16         Cu23   2.009       .  S
O16          C26   1.276       .  A
O17         Cu23   2.013       .  S
O17          C27   1.279       .  A
O18         Cu23   2.005       .  S
O18          C28   1.278       .  A
O19         Cu24   2.013       .  S
O19        C1948   1.279   1_455  A
O20         Cu24   2.005       .  S
O20        C1947   1.278   1_455  A
O21         Cu24   2.010       .  S
O21        C1946   1.276   1_455  A
O22         Cu24   2.009       .  S
O22        C1945   1.278   1_455  A
Cu23      Cu1944   2.374       .  S
Cu24      Cu1943   2.374   1_455  S
C25        O1942   1.278       .  A
C25         C918   1.476       .  S
C26        O1941   1.276       .  A
C26         C928   1.435       .  S
C27        O1940   1.278       .  A
C27         C943   1.481       .  S
C28        O1939   1.279       .  A
C28         C933   1.481       .  S
O29         Cu37   2.010       .  S
O29          C39   1.276       .  A
O30         Cu37   2.011       .  S
O30          C40   1.278       .  A
O31        Cu997   2.003       .  S
O31          C41   1.278       .  A
O32         Cu37   2.013       .  S
O32          C42   1.279       .  A
O33         Cu38   2.005       .  S
O33          C42   1.278       .  A
O34        Cu998   2.012   1_545  S
O34          C41   1.279       .  A
O35         Cu38   2.010       .  S
O35          C40   1.278       .  A
O36         Cu38   2.010       .  S
O36          C39   1.276       .  A
Cu37        O991   2.003       .  S
Cu37        Cu38   2.374       .  S
Cu38        O994   2.012       .  S
C39         C916   1.435       .  S
C40         C906   1.471       .  S
C41         C896   1.480       .  S
C42         C889   1.482       .  S
O43         Cu51   2.004       .  S
O43          C53   1.278       .  A
O44         Cu51   2.012       .  S
O44          C54   1.279       .  A
O45         Cu51   2.008       .  S
O45          C55   1.278       .  A
O46         Cu51   2.009       .  S
O46          C56   1.276       .  A
O47         Cu52   2.010       .  S
O47          C56   1.276       .  A
O48         Cu52   2.010       .  S
O48          C55   1.278       .  A
O49         Cu52   2.006       .  S
O49          C54   1.278       .  A
O50         Cu52   2.011       .  S
O50          C53   1.279       .  A
Cu51        Cu52   2.374       .  S
C53         C899   1.480       .  S
C54         C886   1.482       .  S
C55         C874   1.472       .  S
C56         C883   1.435       .  S
O57       Cu1985   2.014       .  S
O57        C1027   1.279       .  A
O58         Cu65   2.003       .  S
O58        C1028   1.278       .  A
O59         Cu65   2.009       .  S
O59        C2949   1.277   1_455  A
O60       Cu1985   2.007       .  S
O60        C2950   1.276       .  A
O61         Cu66   2.010       .  S
O61        C1990   1.276       .  A
O62       Cu1986   2.009       .  S
O62        C1989   1.277       .  A
O63       Cu1986   2.014   1_455  S
O63          C68   1.279       .  A
O64         Cu66   2.004       .  S
O64          C67   1.278       .  A
Cu65       O1977   2.014   1_455  S
Cu65       O1980   2.007       .  S
Cu65      Cu2946   2.375   1_445  S
Cu66       O1982   2.009       .  S
Cu66       O1983   2.014       .  S
Cu66      Cu2945   2.375       .  S
C67        O1017   1.279       .  A
C67         C852   1.481       .  S
C68        O1018   1.278       .  A
C68         C862   1.481       .  S
C69        O2939   1.277       .  A
C69        O1982   1.277       .  A
C69         C953   1.467       .  S
C70        O2940   1.276       .  A
C70        O1981   1.276       .  A
C70         C871   1.434       .  S
O71       Cu1999   2.005       .  S
O71          C81   1.278       .  A
O72         Cu79   2.013   1_455  S
O72          C82   1.279       .  A
O73         Cu79   2.011       .  S
O73          C83   1.277       .  A
O74         Cu79   2.010   1_455  S
O74          C84   1.276       .  A
O75         Cu80   2.012   1_655  S
O75          C84   1.276   1_655  A
O76         Cu80   2.010       .  S
O76          C83   1.277   1_455  A
O77         Cu80   2.004       .  S
O77          C82   1.278       .  A
O78       Cu2000   2.011       .  S
O78          C81   1.279       .  A
Cu79       O1991   2.005       .  S
Cu79        Cu80   2.374   1_655  S
Cu80       O1998   2.011   1_455  S
C81         C830   1.481       .  S
C82         C840   1.481       .  S
C83         C921   1.468       .  S
C84         C850   1.436       .  S
O85         Cu93   2.010       .  S
O85        C1055   1.278       .  A
O86         Cu93   2.008       .  S
O86        C1056   1.276       .  A
O87         Cu93   2.015       .  S
O87        C1057   1.279       .  A
O88         Cu93   2.004       .  S
O88        C1058   1.278       .  A
O89         Cu94   2.014       .  S
O89          C98   1.279       .  A
O90         Cu94   2.003       .  S
O90          C97   1.278       .  A
O91         Cu94   2.011       .  S
O91          C96   1.276       .  A
O92         Cu94   2.010       .  S
O92          C95   1.278       .  A
Cu93      Cu1054   2.374   1_545  S
Cu94      Cu1053   2.374       .  S
C95        O1045   1.278       .  A
C95         C909   1.473       .  S
C96        O1046   1.276       .  A
C96         C828   1.435       .  S
C97        O1047   1.279       .  A
C97         C855   1.481       .  S
C98        O1048   1.278       .  A
C98         C865   1.481       .  S
O99        Cu107   2.004       .  S
O99         C109   1.278       .  A
O100       Cu107   2.011       .  S
O100        C110   1.279       .  A
O101       Cu107   2.010       .  S
O101        C111   1.278       .  A
O102       Cu107   2.009       .  S
O102        C112   1.276       .  A
O103       Cu108   2.011       .  S
O103        C112   1.276       .  A
O104       Cu108   2.009       .  S
O104        C111   1.277       .  A
O105       Cu108   2.005       .  S
O105        C110   1.278       .  A
O106       Cu108   2.013       .  S
O106        C109   1.279       .  A
Cu107      Cu108   2.374       .  S
C109        C843   1.481       .  S
C110        C833   1.480       .  S
C111        C877   1.470       .  S
C112        C825   1.435       .  S
O113       Cu121   2.009       .  S
O113        C123   1.277       .  A
O114       Cu121   2.008       .  S
O114       C2044   1.276       .  A
O115      Cu1081   2.006       .  S
O115        C125   1.278       .  A
O116       Cu121   2.013       .  S
O116        C126   1.279       .  A
O117       Cu122   2.004       .  S
O117       C2046   1.278   1_455  A
O118      Cu1082   2.011       .  S
O118       C2045   1.279   1_455  A
O119       Cu122   2.009       .  S
O119        C124   1.276   1_455  A
O120       Cu122   2.008       .  S
O120       C2043   1.277   1_455  A
Cu121      O1075   2.006       .  S
Cu121     Cu2042   2.374       .  S
Cu122      O1078   2.011       .  S
Cu122     Cu2041   2.374   1_455  S
C123       O2040   1.277       .  A
C123        C814   1.470       .  S
C124       O2034   1.276       .  A
C124        C823   1.434       .  S
C125       O2038   1.279       .  A
C125       C2724   1.481       .  S
C126       O2037   1.278       .  A
C126       C2714   1.481       .  S
O127       Cu135   2.006       .  S
O127        C137   1.278   1_455  A
O128       Cu135   2.012       .  S
O128        C138   1.279   1_455  A
O129       Cu135   2.009       .  S
O129        C139   1.276   1_455  A
O130       Cu135   2.008       .  S
O130        C140   1.278   1_455  A
O131       Cu136   2.009       .  S
O131       C2060   1.278       .  A
O132       Cu136   2.009       .  S
O132       C2059   1.276       .  A
O133       Cu136   2.005       .  S
O133       C2058   1.278       .  A
O134       Cu136   2.011       .  S
O134       C2057   1.279       .  A
Cu135     Cu2056   2.374   1_455  S
Cu136     Cu2055   2.374       .  S
C137       O2054   1.279       .  A
C137        C807   1.481       .  S
C138       O2053   1.278       .  A
C138        C797   1.481       .  S
C139       O2052   1.276       .  A
C139        C791   1.435       .  S
C140       O2051   1.278       .  A
C140        C782   1.475       .  S
O141      Cu1109   2.004       .  S
O141        C151   1.278       .  A
O142       Cu149   2.013       .  S
O142        C152   1.279       .  A
O143       Cu149   2.007       .  S
O143        C153   1.277       .  A
O144       Cu149   2.008       .  S
O144        C154   1.276       .  A
O145       Cu150   2.008       .  S
O145        C154   1.276       .  A
O146       Cu150   2.008       .  S
O146        C153   1.277       .  A
O147       Cu150   2.004       .  S
O147        C152   1.278       .  A
O148      Cu1110   2.012       .  S
O148        C151   1.279       .  A
Cu149      O1101   2.004       .  S
Cu149      Cu150   2.374       .  S
Cu150      O1108   2.012       .  S
C151        C760   1.481       .  S
C152        C750   1.481       .  S
C153        C770   1.467       .  S
C154        C780   1.434       .  S
O155       Cu163   2.006       .  S
O155        C165   1.277       .  A
O156       Cu163   2.008       .  S
O156        C166   1.276       .  A
O157       Cu163   2.012       .  S
O157        C167   1.279       .  A
O158       Cu163   2.005       .  S
O158        C168   1.278       .  A
O159       Cu164   2.012       .  S
O159        C168   1.279       .  A
O160       Cu164   2.005       .  S
O160        C167   1.278       .  A
O161       Cu164   2.009       .  S
O161        C166   1.276       .  A
O162       Cu164   2.008       .  S
O162        C165   1.277       .  A
Cu163      Cu164   2.374       .  S
C165        C738   1.468       .  S
C166        C747   1.434       .  S
C167        C753   1.481       .  S
C168        C763   1.481       .  S
O169       Cu177   2.006       .  S
O169        C179   1.278   1_455  A
O170       Cu177   2.008       .  S
O170        C180   1.276   1_455  A
O171      Cu1137   2.010       .  S
O171        C181   1.279   1_455  A
O172       Cu177   2.009       .  S
O172        C182   1.279   1_455  A
O173       Cu178   2.007       .  S
O173       C2102   1.278       .  A
O174      Cu1138   2.007       .  S
O174       C2101   1.278       .  A
O175       Cu178   2.010       .  S
O175       C2100   1.276       .  A
O176       Cu178   2.009       .  S
O176       C2099   1.278       .  A
Cu177      O1131   2.010       .  S
Cu177     Cu2098   2.373   1_455  S
Cu178      O1134   2.007       .  S
Cu178     Cu2097   2.373       .  S
C179       O2096   1.278       .  A
C179        C728   1.481       .  S
C180       O2095   1.276       .  A
C180        C824   1.434       .  S
C181       O2094   1.278       .  A
C181        C718   1.481       .  S
C182       O2093   1.278       .  A
C182        C708   1.481       .  S
O183       Cu191   2.008       .  S
O183        C193   1.276   1_455  A
O184       Cu191   2.006       .  S
O184        C194   1.278   1_455  A
O185       Cu191   2.007       .  S
O185        C195   1.278   1_455  A
O186       Cu191   2.007       .  S
O186        C196   1.278   1_455  A
O187       Cu192   2.009       .  S
O187       C2116   1.279       .  A
O188       Cu192   2.010       .  S
O188       C2115   1.279       .  A
O189       Cu192   2.010       .  S
O189       C2114   1.278       .  A
O190       Cu192   2.011       .  S
O190       C2113   1.276       .  A
Cu191     Cu2112   2.373   1_455  S
Cu192     Cu2111   2.373       .  S
C193       O2110   1.276       .  A
C193        C792   1.435       .  S
C194       O2109   1.278       .  A
C194        C698   1.481       .  S
C195       O2108   1.279       .  A
C195        C721   1.481       .  S
C196       O2107   1.279       .  A
C196        C711   1.481       .  S
O197       Cu205   2.008       .  S
O197        C207   1.278       .  A
O198       Cu205   2.008       .  S
O198        C208   1.276       .  A
O199      Cu1165   2.008       .  S
O199        C209   1.278       .  A
O200       Cu205   2.007       .  S
O200        C210   1.278       .  A
O201       Cu206   2.010       .  S
O201        C210   1.279       .  A
O202      Cu1166   2.009       .  S
O202        C209   1.279       .  A
O203       Cu206   2.007       .  S
O203        C208   1.276       .  A
O204       Cu206   2.006       .  S
O204        C207   1.278       .  A
Cu205      O1159   2.008       .  S
Cu205      Cu206   2.373       .  S
Cu206      O1162   2.009       .  S
C207        C688   1.480       .  S
C208        C779   1.433       .  S
C209        C678   1.481       .  S
C210        C668   1.481       .  S
O211       Cu219   2.009       .  S
O211        C221   1.276       .  A
O212       Cu219   2.010       .  S
O212        C222   1.279       .  A
O213       Cu219   2.009       .  S
O213        C223   1.278       .  A
O214       Cu219   2.008       .  S
O214        C224   1.278       .  A
O215       Cu220   2.009       .  S
O215        C224   1.278       .  A
O216       Cu220   2.007       .  S
O216        C223   1.278       .  A
O217       Cu220   2.006       .  S
O217        C222   1.278       .  A
O218       Cu220   2.009       .  S
O218        C221   1.276       .  A
Cu219      Cu220   2.373       .  S
C221        C748   1.434       .  S
C222        C658   1.481       .  S
C223        C681   1.481       .  S
C224        C671   1.481       .  S
O225      Cu2153   2.007       .  S
O225        C235   1.278       .  A
O226       Cu233   2.008       .  S
O226        C236   1.278       .  A
O227       Cu233   2.010       .  S
O227        C237   1.279       .  A
O228       Cu233   2.011       .  S
O228        C238   1.277       .  A
O229      Cu2154   2.009       .  S
O229       C1198   1.276       .  A
O230      Cu2154   2.007       .  S
O230       C1197   1.278       .  A
O231      Cu2154   2.009       .  S
O231       C1196   1.278       .  A
O232       Cu234   2.008       .  S
O232       C1195   1.279       .  A
Cu233      O2145   2.007       .  S
Cu233     Cu3114   2.373       .  S
Cu234      O2149   2.009       .  S
Cu234      O2150   2.007       .  S
Cu234      O2151   2.009   1_455  S
Cu234     Cu3113   2.373   1_545  S
C235       O1192   1.279       .  A
C235        C636   1.481       .  S
C236       O1191   1.278       .  A
C236        C626   1.481       .  S
C237       O1190   1.278       .  A
C237        C646   1.481       .  S
C238       O1189   1.276       .  A
C238       C1615   1.435       .  S
O239       Cu247   2.007       .  S
O239        C249   1.278       .  A
O240       Cu247   2.008   1_455  S
O240        C250   1.276       .  A
O241       Cu247   2.009   1_455  S
O241        C251   1.278       .  A
O242      Cu2167   2.007       .  S
O242        C252   1.278       .  A
O243      Cu2168   2.009       .  S
O243        C252   1.278       .  A
O244       Cu248   2.007       .  S
O244        C251   1.278       .  A
O245       Cu248   2.008       .  S
O245        C250   1.276       .  A
O246       Cu248   2.007       .  S
O246        C249   1.278   1_455  A
Cu247      O2162   2.007       .  S
Cu247      Cu248   2.373   1_655  S
Cu248      O2163   2.009   1_455  S
C249        C617   1.480       .  S
C250        C624   1.434       .  S
C251        C604   1.481       .  S
C252        C594   1.481       .  S
O253       Cu261   2.007       .  S
O253       C1223   1.278       .  A
O254       Cu261   2.009       .  S
O254       C1224   1.276       .  A
O255       Cu261   2.009       .  S
O255       C1225   1.279       .  A
O256       Cu261   2.008       .  S
O256       C1226   1.278       .  A
O257       Cu262   2.008       .  S
O257        C266   1.278       .  A
O258       Cu262   2.007       .  S
O258        C265   1.278       .  A
O259       Cu262   2.011       .  S
O259        C264   1.276       .  A
O260       Cu262   2.009       .  S
O260        C263   1.279       .  A
Cu261     Cu1222   2.373   1_545  S
Cu262     Cu1221   2.373       .  S
C263       O1213   1.278       .  A
C263        C582   1.481       .  S
C264       O1214   1.276       .  A
C264        C591   1.435       .  S
C265       O1215   1.279       .  A
C265        C629   1.481       .  S
C266       O1216   1.278       .  A
C266        C639   1.481       .  S
O267       Cu275   2.007       .  S
O267        C277   1.278       .  A
O268       Cu275   2.008       .  S
O268        C278   1.278       .  A
O269       Cu275   2.009       .  S
O269        C279   1.276       .  A
O270       Cu275   2.008       .  S
O270        C280   1.278       .  A
O271       Cu276   2.010       .  S
O271        C280   1.278       .  A
O272       Cu276   2.010       .  S
O272        C279   1.276       .  A
O273       Cu276   2.008       .  S
O273        C278   1.279       .  A
O274       Cu276   2.009       .  S
O274        C277   1.278       .  A
Cu275      Cu276   2.373       .  S
C277        C597   1.481       .  S
C278        C607   1.481       .  S
C279        C579   1.435       .  S
C280        C570   1.482       .  S
O281       Cu289   2.006       .  S
O281       C1251   1.276       .  A
O282       Cu289   2.009       .  S
O282        C292   1.277       .  A
O283       Cu289   2.012       .  S
O283       C1253   1.279       .  A
O284      Cu2209   2.006       .  S
O284       C1254   1.278       .  A
O285      Cu2210   2.012   1_455  S
O285        C294   1.279       .  A
O286       Cu290   2.004       .  S
O286        C293   1.278       .  A
O287       Cu290   2.010       .  S
O287       C1252   1.278       .  A
O288       Cu290   2.012       .  S
O288        C291   1.277       .  A
Cu289      O2204   2.006       .  S
Cu289     Cu1250   2.374       .  S
Cu290      O2205   2.012       .  S
Cu290     Cu1249   2.374   1_545  S
C291       O1241   1.276   1_545  A
C291        C656   1.435       .  S
C292       O1247   1.278       .  A
C292        C817   1.472       .  S
C293       O1243   1.279   1_545  A
C293       C1510   1.481       .  S
C294       O1244   1.278   1_545  A
C294       C1520   1.481       .  S
O295       Cu303   2.006   1_455  S
O295        C305   1.276       .  A
O296       Cu303   2.007       .  S
O296        C306   1.277       .  A
O297       Cu303   2.013   1_455  S
O297        C307   1.279       .  A
O298      Cu2223   2.004       .  S
O298        C308   1.278       .  A
O299      Cu2224   2.011       .  S
O299        C308   1.279       .  A
O300       Cu304   2.005       .  S
O300        C307   1.278       .  A
O301       Cu304   2.008       .  S
O301        C306   1.277   1_455  A
O302       Cu304   2.009       .  S
O302        C305   1.276       .  A
Cu303      O2218   2.004       .  S
Cu303      Cu304   2.375   1_655  S
Cu304      O2219   2.011   1_455  S
C305        C623   1.434       .  S
C306        C785   1.467       .  S
C307        C540   1.481       .  S
C308        C530   1.480       .  S
O309       Cu317   2.010       .  S
O309       C1279   1.278       .  A
O310       Cu317   2.012       .  S
O310        C320   1.277       .  A
O311       Cu317   2.012       .  S
O311       C1281   1.279       .  A
O312       Cu317   2.005       .  S
O312       C1282   1.278       .  A
O313       Cu318   2.011       .  S
O313        C322   1.279       .  A
O314       Cu318   2.006       .  S
O314        C321   1.278       .  A
O315       Cu318   2.007       .  S
O315       C1280   1.276       .  A
O316       Cu318   2.009       .  S
O316        C319   1.278       .  A
Cu317     Cu1278   2.374   1_545  S
Cu318     Cu1277   2.374       .  S
C319       O1269   1.278       .  A
C319        C773   1.475       .  S
C320       O1275   1.276   1_545  A
C320        C592   1.435       .  S
C321       O1271   1.279       .  A
C321        C563   1.481       .  S
C322       O1272   1.278       .  A
C322        C553   1.481       .  S
O323       Cu331   2.005       .  S
O323        C333   1.278       .  A
O324       Cu331   2.011       .  S
O324        C334   1.279       .  A
O325       Cu331   2.009       .  S
O325        C335   1.278       .  A
O326       Cu331   2.010       .  S
O326        C336   1.276       .  A
O327       Cu332   2.008       .  S
O327        C336   1.276       .  A
O328       Cu332   2.007       .  S
O328        C335   1.277       .  A
O329       Cu332   2.004       .  S
O329        C334   1.278       .  A
O330       Cu332   2.012       .  S
O330        C333   1.279       .  A
Cu331      Cu332   2.374       .  S
C333        C543   1.481       .  S
C334        C533   1.480       .  S
C335        C741   1.471       .  S
C336        C580   1.435       .  S
O337       Cu345   2.011       .  S
O337       C1307   1.277       .  A
O338       Cu345   2.013   1_655  S
O338       C1308   1.279       .  A
O339       Cu345   2.008       .  S
O339       C1309   1.278       .  A
O340      Cu2265   2.008       .  S
O340       C1310   1.278       .  A
O341      Cu2266   2.009       .  S
O341        C350   1.278       .  A
O342       Cu346   2.008       .  S
O342        C349   1.278       .  A
O343       Cu346   2.005       .  S
O343        C348   1.278   1_455  A
O344       Cu346   2.006       .  S
O344        C347   1.276       .  A
Cu345      O2260   2.008   1_455  S
Cu345     Cu1306   2.373   1_545  S
Cu346      O2261   2.009   1_455  S
Cu346     Cu1305   2.373       .  S
C347       O1297   1.277       .  A
C347        C872   1.434       .  S
C348       O1298   1.279       .  A
C348        C649   1.481       .  S
C349       O1299   1.278       .  A
C349        C520   1.481       .  S
C350       O1300   1.278       .  A
C350        C510   1.481       .  S
O351       Cu359   2.011       .  S
O351        C361   1.276       .  A
O352       Cu359   2.010       .  S
O352        C362   1.278   1_455  A
O353      Cu2279   2.009       .  S
O353        C363   1.279       .  A
O354       Cu359   2.008       .  S
O354        C364   1.278       .  A
O355       Cu360   2.008       .  S
O355        C364   1.278       .  A
O356      Cu2280   2.007       .  S
O356        C363   1.278       .  A
O357       Cu360   2.008   1_655  S
O357        C362   1.278       .  A
O358       Cu360   2.009       .  S
O358        C361   1.276       .  A
Cu359      O2273   2.009   1_455  S
Cu359      Cu360   2.373       .  S
Cu360      O2276   2.007   1_455  S
C361        C849   1.436       .  S
C362        C614   1.481       .  S
C363        C490   1.481       .  S
C364        C500   1.481       .  S
O365       Cu373   2.006       .  S
O365        C375   1.276       .  A
O366       Cu373   2.004       .  S
O366        C376   1.278       .  A
O367       Cu373   2.008       .  S
O367        C377   1.279       .  A
O368       Cu373   2.008       .  S
O368        C378   1.278       .  A
O369       Cu374   2.008       .  S
O369       C1338   1.278       .  A
O370       Cu374   2.008       .  S
O370       C1337   1.278       .  A
O371       Cu374   2.014       .  S
O371       C1336   1.279       .  A
O372       Cu374   2.012       .  S
O372       C1335   1.277       .  A
Cu373     Cu1334   2.373       .  S
Cu374     Cu1333   2.373   1_545  S
C375       O1332   1.277       .  A
C375        C827   1.434       .  S
C376       O1331   1.279       .  A
C376        C585   1.481       .  S
C377       O1330   1.278       .  A
C377        C523   1.481       .  S
C378       O1329   1.278       .  A
C378        C513   1.481       .  S
O379       Cu387   2.011       .  S
O379        C389   1.278       .  A
O380       Cu387   2.011       .  S
O380        C390   1.276       .  A
O381       Cu387   2.007       .  S
O381        C391   1.278       .  A
O382       Cu387   2.008       .  S
O382        C392   1.278       .  A
O383       Cu388   2.008       .  S
O383        C392   1.278       .  A
O384       Cu388   2.009       .  S
O384        C391   1.278       .  A
O385       Cu388   2.009       .  S
O385        C390   1.276       .  A
O386       Cu388   2.009       .  S
O386        C389   1.278       .  A
Cu387      Cu388   2.373       .  S
C389        C573   1.482       .  S
C390        C826   1.435       .  S
C391        C493   1.481       .  S
C392        C503   1.481       .  S
O393       Cu401   2.007       .  S
O393        C403   1.278   1_455  A
O394       Cu401   2.007       .  S
O394        C404   1.276   1_455  A
O395       Cu401   2.008       .  S
O395        C405   1.278   1_455  A
O396      Cu1361   2.009   1_545  S
O396        C406   1.278   1_455  A
O397      Cu1362   2.008   1_545  S
O397       C2326   1.278       .  A
O398       Cu402   2.008       .  S
O398       C2325   1.278       .  A
O399       Cu402   2.011       .  S
O399       C2324   1.277       .  A
O400       Cu402   2.011       .  S
O400       C2323   1.279       .  A
Cu401      O1356   2.009       .  S
Cu401     Cu2322   2.373   1_455  S
Cu402      O1357   2.008       .  S
Cu402     Cu2321   2.373       .  S
C403       O2320   1.279       .  A
C403        C731   1.481       .  S
C404       O2319   1.277       .  A
C404        C959   1.435       .  S
C405       O2318   1.278       .  A
C405        C470   1.481       .  S
C406       O2317   1.278       .  A
C406        C480   1.481       .  S
O407       Cu415   2.008       .  S
O407        C417   1.278   1_455  A
O408       Cu415   2.007       .  S
O408        C418   1.276   1_455  A
O409       Cu415   2.008       .  S
O409        C419   1.278   1_455  A
O410       Cu415   2.009       .  S
O410        C420   1.278   1_455  A
O411       Cu416   2.008       .  S
O411       C2340   1.278       .  A
O412       Cu416   2.009       .  S
O412       C2339   1.278       .  A
O413       Cu416   2.010       .  S
O413       C2338   1.276       .  A
O414       Cu416   2.010       .  S
O414       C2337   1.278       .  A
Cu415     Cu2336   2.373   1_455  S
Cu416     Cu2335   2.373       .  S
C417       O2334   1.278       .  A
C417        C701   1.481       .  S
C418       O2333   1.276       .  A
C418       C2847   1.435       .  S
C419       O2332   1.278       .  A
C419        C483   1.481       .  S
C420       O2331   1.278       .  A
C420        C473   1.481       .  S
O421       Cu429   2.010       .  S
O421        C431   1.276       .  A
O422       Cu429   2.007       .  S
O422        C432   1.278       .  A
O423      Cu1389   2.008   1_545  S
O423        C433   1.278       .  A
O424       Cu429   2.009       .  S
O424        C434   1.278       .  A
O425       Cu430   2.008       .  S
O425        C434   1.278       .  A
O426      Cu1390   2.008   1_545  S
O426        C433   1.278       .  A
O427       Cu430   2.009       .  S
O427        C432   1.278       .  A
O428       Cu430   2.009       .  S
O428        C431   1.276       .  A
Cu429      O1383   2.008       .  S
Cu429      Cu430   2.373       .  S
Cu430      O1386   2.008       .  S
C431        C915   1.435       .  S
C432        C691   1.481       .  S
C433        C460   1.481       .  S
C434        C450   1.481       .  S
O435       Cu443   2.008       .  S
O435        C445   1.278       .  A
O436       Cu443   2.009       .  S
O436        C446   1.276       .  A
O437       Cu443   2.008       .  S
O437        C447   1.278       .  A
O438       Cu443   2.008       .  S
O438        C448   1.278       .  A
O439       Cu444   2.009       .  S
O439        C448   1.278       .  A
O440       Cu444   2.008       .  S
O440        C447   1.278       .  A
O441       Cu444   2.008       .  S
O441        C446   1.276       .  A
O442       Cu444   2.009       .  S
O442        C445   1.278       .  A
Cu443      Cu444   2.373       .  S
C445        C661   1.481       .  S
C446        C884   1.435       .  S
C447        C463   1.481       .  S
C448        C453   1.481       .  S
C449        C450   1.406       .  A
C449        C454   1.398       .  A
C449        H455   1.083       .  S
C450        C451   1.406       .  A
C451        C452   1.398       .  A
C451        H456   1.083       .  S
C452        C453   1.406       .  A
C452        H457   1.083       .  S
C453        C454   1.405       .  A
C454        H458   1.083       .  S
C459        C460   1.406       .  A
C459        C464   1.398       .  A
C459        H465   1.083       .  S
C460        C461   1.406       .  A
C461        C462   1.398       .  A
C461        H466   1.083       .  S
C462        C463   1.406       .  A
C462        H467   1.083       .  S
C463        C464   1.406       .  A
C464        H468   1.083       .  S
C469        C470   1.406   1_455  A
C469        C474   1.398       .  A
C469        H475   1.083       .  S
C470       C2391   1.406       .  A
C471        C472   1.398       .  A
C471       C2390   1.406       .  A
C471        H476   1.083       .  S
C472       C2393   1.406       .  A
C472        H477   1.083       .  S
C473        C474   1.406   1_655  A
C473       C2392   1.406       .  A
C474        H478   1.083       .  S
C479        C480   1.405   1_455  A
C479        C484   1.398       .  A
C479        H485   1.083       .  S
C480       C2401   1.406       .  A
C481        C482   1.398       .  A
C481       C2400   1.406       .  A
C481        H486   1.083       .  S
C482       C2403   1.406       .  A
C482        H487   1.083       .  S
C483        C484   1.406   1_655  A
C483       C2402   1.406       .  A
C484        H488   1.083       .  S
C489        C490   1.405       .  A
C489        C494   1.397       .  A
C489        H495   1.083       .  S
C490        C491   1.406       .  A
C491        C492   1.398       .  A
C491        H496   1.083       .  S
C492        C493   1.406       .  A
C492        H497   1.083       .  S
C493        C494   1.405       .  A
C494        H498   1.083       .  S
C499        C500   1.406       .  A
C499        C504   1.398       .  A
C499        H505   1.083       .  S
C500        C501   1.405       .  A
C501        C502   1.397       .  A
C501        H506   1.083       .  S
C502        C503   1.405       .  A
C502        H507   1.083       .  S
C503        C504   1.406       .  A
C504        H508   1.083       .  S
C509        C514   1.397       .  A
C509       C1470   1.405       .  A
C509        H515   1.083       .  S
C510        C511   1.406       .  A
C510       C1469   1.405       .  A
C511        C512   1.398       .  A
C511        H516   1.083       .  S
C512        C513   1.406       .  A
C512        H517   1.083       .  S
C513       C1474   1.405       .  A
C514       C1473   1.405       .  A
C514        H518   1.083       .  S
C519        C520   1.405       .  A
C519        C524   1.397       .  A
C519        H525   1.083       .  S
C520       C1481   1.406       .  A
C521        C522   1.398       .  A
C521       C1480   1.406       .  A
C521        H526   1.083       .  S
C522       C1483   1.406       .  A
C522        H527   1.083       .  S
C523        C524   1.405       .  A
C523       C1482   1.406       .  A
C524        H528   1.083       .  S
C529        C530   1.406       .  A
C529        C534   1.398       .  A
C529        H535   1.083       .  S
C530        C531   1.405       .  A
C531        C532   1.397       .  A
C531        H536   1.083       .  S
C532        C533   1.405       .  A
C532        H537   1.083       .  S
C533        C534   1.406       .  A
C534        H538   1.083       .  S
C539        C540   1.406       .  A
C539        C544   1.397       .  A
C539        H545   1.083       .  S
C540        C541   1.405       .  A
C541        C542   1.398       .  A
C541        H546   1.083       .  S
C542        C543   1.406       .  A
C542        H547   1.083       .  S
C543        C544   1.406       .  A
C544        H548   1.083       .  S
C549        C554   1.397       .  A
C549       C1510   1.406       .  A
C549        H555   1.083       .  S
C550       C1253   1.481       .  S
C550        C551   1.405       .  A
C550       C1509   1.406       .  A
C551        C552   1.398       .  A
C551        H556   1.083       .  S
C552        C553   1.406       .  A
C552        H557   1.083       .  S
C553       C1514   1.405       .  A
C554       C1513   1.405       .  A
C554        H558   1.083       .  S
C559        C560   1.405       .  A
C559        C564   1.397       .  A
C559        H565   1.083       .  S
C560       C1254   1.481       .  S
C560       C1521   1.406       .  A
C561        C562   1.399       .  A
C561       C1520   1.406       .  A
C561        H566   1.083       .  S
C562       C1523   1.406       .  A
C562        H567   1.083       .  S
C563        C564   1.405       .  A
C563       C1522   1.406       .  A
C564        H568   1.083       .  S
C569        C570   1.406       .  A
C569        C574   1.398   1_554  A
C569        H575   1.083       .  S
C570        C571   1.406       .  A
C571        C572   1.399   1_554  A
C571        H576   1.083       .  S
C572        C573   1.406       .  A
C572        H577   1.083       .  S
C573        C574   1.406       .  A
C574        H578   1.083       .  S
C579        C580   1.206       .  T
C581        C582   1.405       .  A
C581        C586   1.397   1_554  A
C581        H587   1.083       .  S
C582       C1543   1.406       .  A
C583        C584   1.399   1_554  A
C583       C1542   1.406       .  A
C583        H588   1.083       .  S
C584       C1545   1.405       .  A
C584        H589   1.083       .  S
C585        C586   1.406       .  A
C585       C1544   1.405       .  A
C586        H590   1.083       .  S
C591       C1552   1.206       .  T
C592       C1551   1.206       .  T
C593        C594   1.405       .  A
C593        C598   1.397       .  A
C593        H599   1.083       .  S
C594        C595   1.406       .  A
C595        C596   1.399       .  A
C595        H600   1.083       .  S
C596        C597   1.406       .  A
C596        H601   1.083       .  S
C597        C598   1.405       .  A
C598        H602   1.083       .  S
C603        C604   1.406       .  A
C603        C608   1.399       .  A
C603        H609   1.083       .  S
C604        C605   1.405       .  A
C605        C606   1.397       .  A
C605        H610   1.083       .  S
C606        C607   1.405       .  A
C606        H611   1.083       .  S
C607        C608   1.406       .  A
C608        H612   1.083       .  S
C613        C614   1.406       .  A
C613        C618   1.397   1_556  A
C613        H619   1.083       .  S
C614       C2535   1.406   1_655  A
C615        C616   1.398   1_556  A
C615       C2534   1.406       .  A
C615        H620   1.083       .  S
C616       C2537   1.406       .  A
C616        H621   1.083       .  S
C617        C618   1.405       .  A
C617       C2536   1.406   1_655  A
C618        H622   1.083       .  S
C623        C624   1.205       .  T
C625        C626   1.406       .  A
C625        C630   1.397       .  A
C625        H631   1.083       .  S
C626       C1587   1.406       .  A
C627        C628   1.398       .  A
C627       C1586   1.406       .  A
C627        H632   1.083       .  S
C628       C1589   1.406       .  A
C628        H633   1.083       .  S
C629        C630   1.406       .  A
C629       C1588   1.406       .  A
C630        H634   1.083       .  S
C635        C640   1.397       .  A
C635       C1596   1.405       .  A
C635        H641   1.083       .  S
C636        C637   1.406       .  A
C636       C1595   1.405       .  A
C637        C638   1.398       .  A
C637        H642   1.083       .  S
C638        C639   1.406       .  A
C638        H643   1.083       .  S
C639       C1600   1.405       .  A
C640       C1599   1.405       .  A
C640        H644   1.083       .  S
C645        C650   1.398   1_554  A
C645       C3526   1.406       .  A
C645        H651   1.083       .  S
C646        C647   1.405       .  A
C646       C3525   1.406       .  A
C647        C648   1.397   1_554  A
C647        H652   1.083       .  S
C648       C2569   1.406       .  A
C648        H653   1.083       .  S
C649       C2568   1.406   1_655  A
C649       C1610   1.405       .  A
C650       C1609   1.405       .  A
C650        H654   1.083       .  S
C655       C1198   1.435       .  S
C655        C656   1.206       .  T
C657        C658   1.405       .  A
C657        C662   1.398       .  A
C657        H663   1.083       .  S
C658        C659   1.406       .  A
C659        C660   1.397       .  A
C659        H664   1.083       .  S
C660        C661   1.405       .  A
C660        H665   1.083       .  S
C661        C662   1.406       .  A
C662        H666   1.083       .  S
C667        C668   1.405       .  A
C667        C672   1.397       .  A
C667        H673   1.083       .  S
C668        C669   1.406       .  A
C669        C670   1.398       .  A
C669        H674   1.083       .  S
C670        C671   1.406       .  A
C670        H675   1.083       .  S
C671        C672   1.405       .  A
C672        H676   1.083       .  S
C677        C678   1.406       .  A
C677        C682   1.398       .  A
C677        H683   1.083       .  S
C678        C679   1.405       .  A
C679        C680   1.397       .  A
C679        H684   1.083       .  S
C680        C681   1.405       .  A
C680        H685   1.083       .  S
C681        C682   1.406       .  A
C682        H686   1.083       .  S
C687        C692   1.398       .  A
C687       C1648   1.406       .  A
C687        H693   1.083   1_545  S
C688        C689   1.405       .  A
C688       C1647   1.406       .  A
C689        C690   1.397       .  A
C689        H694   1.083       .  S
C690        C691   1.405       .  A
C690        H695   1.083       .  S
C691       C1652   1.406       .  A
C692       C1651   1.406       .  A
C692        H696   1.083   1_545  S
C697        C702   1.399       .  A
C697       C2618   1.406       .  A
C697        H703   1.083       .  S
C698        C699   1.405   1_655  A
C698       C2617   1.406       .  A
C699        C700   1.397       .  A
C699        H704   1.083       .  S
C700        C701   1.405   1_455  A
C700        H705   1.083       .  S
C701       C2622   1.406       .  A
C702       C2621   1.406       .  A
C702        H706   1.083       .  S
C707        C708   1.405   1_455  A
C707        C712   1.398       .  A
C707        H713   1.083       .  S
C708       C2629   1.406       .  A
C709        C710   1.398       .  A
C709       C2628   1.406       .  A
C709        H714   1.083       .  S
C710       C2631   1.405       .  A
C710        H715   1.083       .  S
C711        C712   1.406   1_655  A
C711       C2630   1.405       .  A
C712        H716   1.083       .  S
C717        C718   1.405   1_455  A
C717        C722   1.398       .  A
C717        H723   1.083       .  S
C718       C2639   1.406       .  A
C719        C720   1.398       .  A
C719       C2638   1.406       .  A
C719        H724   1.083       .  S
C720       C2641   1.405       .  A
C720        H725   1.083       .  S
C721        C722   1.406   1_655  A
C721       C2640   1.405       .  A
C722        H726   1.083       .  S
C727        C732   1.397       .  A
C727       C1688   1.405   1_465  A
C727        H733   1.083       .  S
C728       C1687   1.405   1_655  A
C728       C2649   1.406       .  A
C729        C730   1.398       .  A
C729       C2648   1.406       .  A
C729        H734   1.083       .  S
C730       C2651   1.406       .  A
C730        H735   1.083       .  S
C731       C2650   1.406       .  A
C731       C1692   1.406   1_655  A
C732       C1691   1.406   1_465  A
C732        H736   1.083       .  S
C737        C738   1.403       .  A
C737        C742   1.398       .  A
C737        H743   1.083       .  S
C738        C739   1.403       .  A
C739        C740   1.398       .  A
C739        H744   1.083       .  S
C740        C741   1.403       .  A
C740        H745   1.083       .  S
C741        C742   1.404       .  A
C742        H746   1.083       .  S
C747        C748   1.205       .  T
C749        C750   1.406       .  A
C749        C754   1.397       .  A
C749        H755   1.083       .  S
C750        C751   1.405       .  A
C751        C752   1.398       .  A
C751        H756   1.083       .  S
C752        C753   1.406       .  A
C752        H757   1.083       .  S
C753        C754   1.405       .  A
C754        H758   1.083       .  S
C759        C760   1.406       .  A
C759        C764   1.397       .  A
C759        H765   1.083       .  S
C760        C761   1.405       .  A
C761        C762   1.398       .  A
C761        H766   1.083       .  S
C762        C763   1.406       .  A
C762        H767   1.083       .  S
C763        C764   1.405       .  A
C764        H768   1.083       .  S
C769        C770   1.402       .  A
C769        C774   1.398       .  A
C769        H775   1.083       .  S
C770       C1731   1.402       .  A
C771        C772   1.398       .  A
C771       C1730   1.402       .  A
C771        H776   1.084       .  S
C772       C1733   1.405       .  A
C772        H777   1.083       .  S
C773        C774   1.405       .  A
C773       C1732   1.405       .  A
C774        H778   1.083       .  S
C779        C780   1.205       .  T
C781        C786   1.399       .  A
C781       C2702   1.405       .  A
C781        H787   1.083       .  S
C782        C783   1.405   1_655  A
C782       C2701   1.405       .  A
C783        C784   1.398       .  A
C783        H788   1.083       .  S
C784        C785   1.401   1_455  A
C784        H789   1.084       .  S
C785       C2706   1.402       .  A
C786       C2705   1.402       .  A
C786        H790   1.083       .  S
C791        C792   1.206       .  T
C793        C798   1.398       .  A
C793       C2714   1.405       .  A
C793        H799   1.083       .  S
C794       C2046   1.481       .  S
C794        C795   1.406   1_655  A
C794       C2713   1.405       .  A
C795        C796   1.398       .  A
C795        H800   1.083       .  S
C796        C797   1.405   1_455  A
C796        H801   1.083       .  S
C797       C2718   1.406       .  A
C798       C2717   1.406       .  A
C798        H802   1.083       .  S
C803        C808   1.398       .  A
C803       C2724   1.406       .  A
C803        H809   1.083       .  S
C804       C2045   1.481       .  S
C804        C805   1.405   1_655  A
C804       C2723   1.406       .  A
C805        C806   1.398       .  A
C805        H810   1.083       .  S
C806        C807   1.406   1_455  A
C806        H811   1.083       .  S
C807       C2728   1.405       .  A
C808       C2727   1.405       .  A
C808        H812   1.083       .  S
C813        C818   1.398       .  A
C813       C2734   1.403   1_455  A
C813        H819   1.083       .  S
C814       C2733   1.403       .  A
C814       C1775   1.403       .  A
C815        C816   1.398       .  A
C815       C1774   1.403       .  A
C815        H820   1.083       .  S
C816       C1777   1.404       .  A
C816        H821   1.083       .  S
C817       C1776   1.404       .  A
C817       C2738   1.404       .  A
C818       C2737   1.404   1_455  A
C818        H822   1.083       .  S
C823        C824   1.205       .  T
C825        C826   1.206       .  T
C827        C828   1.205       .  T
C829        C830   1.406       .  A
C829        C834   1.397       .  A
C829        H835   1.083       .  S
C830        C831   1.405       .  A
C831        C832   1.398       .  A
C831        H836   1.083       .  S
C832        C833   1.406       .  A
C832        H837   1.083       .  S
C833        C834   1.405       .  A
C834        H838   1.083       .  S
C839        C840   1.406       .  A
C839        C844   1.397       .  A
C839        H845   1.083       .  S
C840        C841   1.405       .  A
C841        C842   1.398       .  A
C841        H846   1.083       .  S
C842        C843   1.406       .  A
C842        H847   1.083       .  S
C843        C844   1.405       .  A
C844        H848   1.083       .  S
C849        C850   1.206       .  T
C851        C856   1.401       .  A
C851       C1812   1.407       .  A
C851        H857   1.083       .  S
C852        C853   1.405       .  A
C852       C1811   1.407       .  A
C853        C854   1.395       .  A
C853        H858   1.083       .  S
C854        C855   1.405       .  A
C854        H859   1.083       .  S
C855       C1816   1.407       .  A
C856       C1815   1.407       .  A
C856        H860   1.083       .  S
C861        C862   1.407       .  A
C861        C866   1.401       .  A
C861        H867   1.083       .  S
C862       C1823   1.405       .  A
C863        C864   1.395       .  A
C863       C1822   1.405       .  A
C863        H868   1.083       .  S
C864       C1825   1.405       .  A
C864        H869   1.083       .  S
C865        C866   1.407       .  A
C865       C1824   1.405       .  A
C866        H870   1.083       .  S
C871        C872   1.205       .  T
C873        C874   1.404       .  A
C873        C878   1.399       .  A
C873        H879   1.083       .  S
C874        C875   1.404       .  A
C875        C876   1.398       .  A
C875        H880   1.083       .  S
C876        C877   1.403       .  A
C876        H881   1.083       .  S
C877        C878   1.403       .  A
C878        H882   1.083       .  S
C883        C884   1.206       .  T
C885        C886   1.406       .  A
C885        C890   1.398       .  A
C885        H891   1.083       .  S
C886        C887   1.405       .  A
C887        C888   1.398       .  A
C887        H892   1.083       .  S
C888        C889   1.406       .  A
C888        H893   1.083       .  S
C889        C890   1.406       .  A
C890        H894   1.083       .  S
C895        C896   1.406       .  A
C895        C900   1.397       .  A
C895        H901   1.083       .  S
C896        C897   1.405       .  A
C897        C898   1.398       .  A
C897        H902   1.083       .  S
C898        C899   1.406       .  A
C898        H903   1.083       .  S
C899        C900   1.405       .  A
C900        H904   1.083       .  S
C905        C906   1.403       .  A
C905        C910   1.398       .  A
C905        H911   1.083       .  S
C906       C1867   1.403       .  A
C907        C908   1.399       .  A
C907       C1866   1.403       .  A
C907        H912   1.083       .  S
C908       C1869   1.404       .  A
C908        H913   1.083       .  S
C909        C910   1.404       .  A
C909       C1868   1.404       .  A
C910        H914   1.083       .  S
C915        C916   1.206       .  T
C917        C918   1.405       .  A
C917        C922   1.399       .  A
C917        H923   1.083       .  S
C918       C2839   1.405       .  A
C919        C920   1.399       .  A
C919       C2838   1.405   1_455  A
C919        H924   1.083       .  S
C920        C921   1.402   1_455  A
C920        H925   1.083       .  S
C921       C2842   1.402       .  A
C922       C2841   1.402       .  A
C922        H926   1.083       .  S
C927       C2338   1.435       .  S
C927        C928   1.206       .  T
C929        C934   1.400       .  A
C929       C2850   1.406   1_455  A
C929        H935   1.083       .  S
C930       C1934   1.481       .  S
C930        C931   1.405       .  A
C930       C2849   1.406       .  A
C931        C932   1.396       .  A
C931        H936   1.083       .  S
C932        C933   1.405       .  A
C932        H937   1.083       .  S
C933       C2854   1.406       .  A
C934       C2853   1.406   1_455  A
C934        H938   1.083       .  S
C939        C940   1.406       .  A
C939        C944   1.400       .  A
C939        H945   1.083       .  S
C940       C1933   1.481       .  S
C940       C2861   1.405       .  A
C941        C942   1.395       .  A
C941       C2860   1.405   1_455  A
C941        H946   1.083       .  S
C942       C2863   1.405   1_455  A
C942        H947   1.083       .  S
C943        C944   1.406       .  A
C943       C2862   1.405       .  A
C944        H948   1.083       .  S
C949        C954   1.398       .  A
C949       C3830   1.405   1_455  A
C949        H955   1.083       .  S
C950        C951   1.405       .  A
C950       C3829   1.405       .  A
C951        C952   1.398       .  A
C951        H956   1.083       .  S
C952        C953   1.402       .  A
C952        H957   1.083       .  S
C953       C3834   1.401       .  A
C954       C3833   1.401   1_455  A
C954        H958   1.083       .  S
C959        C960   1.206       .  T
C960        C971   1.435       .  S
O961       Cu969   2.009       .  S
O961       C2891   1.276       .  A
O962       Cu969   2.009       .  S
O963       Cu969   2.013       .  S
O963       C2893   1.279       .  A
O964       C2894   1.278       .  A
O965       Cu970   2.013   1_565  S
O965        C974   1.279   1_455  A
O966        C973   1.278   1_455  A
O967       Cu970   2.008       .  S
O967       C2892   1.278   1_455  A
O968       Cu970   2.011   1_565  S
Cu969     Cu1930   2.374       .  S
Cu970     Cu1929   2.374   1_445  S
C971       O2881   1.276       .  A
C972       O2887   1.278       .  A
C972       C1910   1.476       .  S
C973       O2883   1.279       .  A
C973       C3820   1.481       .  S
C974       O2884   1.278       .  A
C974       C3810   1.481       .  S
O975       Cu983   2.009       .  S
O975        C985   1.278       .  A
O976       Cu983   2.009       .  S
O976        C986   1.276       .  A
O977       Cu983   2.013       .  S
O977        C987   1.279       .  A
O978       Cu983   2.005       .  S
O978        C988   1.278       .  A
O979       Cu984   2.013       .  S
O979       C2908   1.279   1_455  A
O980       Cu984   2.005       .  S
O980       C2907   1.278   1_455  A
O981       Cu984   2.010       .  S
O981       C2906   1.276   1_455  A
O982       Cu984   2.009       .  S
O982       C2905   1.278   1_455  A
Cu983     Cu2904   2.374       .  S
Cu984     Cu2903   2.374   1_455  S
C985       O2902   1.278       .  A
C985       C1878   1.476       .  S
C986       O2901   1.276       .  A
C986       C1888   1.435       .  S
C987       O2900   1.278       .  A
C987       C1903   1.481       .  S
C988       O2899   1.279       .  A
C988       C1893   1.481       .  S
O989       Cu997   2.010   1_565  S
O989        C999   1.276       .  A
O990       Cu997   2.011       .  S
O990       C1000   1.278       .  A
O991       C1001   1.278       .  A
O992       Cu997   2.013   1_565  S
O992       C1002   1.279       .  A
O993       Cu998   2.005       .  S
O993       C1002   1.278       .  A
O994       C1001   1.279       .  A
O995       Cu998   2.009       .  S
O995       C1000   1.278   1_565  A
O996       Cu998   2.010       .  S
O996        C999   1.276       .  A
Cu997      Cu998   2.374   1_545  S
C999       C1876   1.435       .  S
C1000      C1866   1.471       .  S
C1001      C1856   1.480       .  S
C1002      C1849   1.482       .  S
O1003     Cu1011   2.004       .  S
O1003      C1013   1.278       .  A
O1004     Cu1011   2.012       .  S
O1004      C1014   1.279       .  A
O1005     Cu1011   2.008       .  S
O1005      C1015   1.278       .  A
O1006     Cu1011   2.009       .  S
O1006      C1016   1.276       .  A
O1007     Cu1012   2.010       .  S
O1007      C1016   1.276       .  A
O1008     Cu1012   2.010       .  S
O1008      C1015   1.278       .  A
O1009     Cu1012   2.006       .  S
O1009      C1014   1.278       .  A
O1010     Cu1012   2.011       .  S
O1010      C1013   1.279       .  A
Cu1011    Cu1012   2.374       .  S
C1013      C1859   1.480       .  S
C1014      C1846   1.482       .  S
C1015      C1834   1.472       .  S
C1016      C1843   1.435       .  S
O1017     Cu2945   2.014       .  S
O1018     Cu1025   2.003       .  S
O1019     Cu1025   2.009       .  S
O1019      C1989   1.277   1_455  A
O1020     Cu2945   2.007       .  S
O1020      C1990   1.276       .  A
O1021     Cu1026   2.010       .  S
O1021      C2950   1.276   1_565  A
O1022     Cu2946   2.009       .  S
O1022      C2949   1.277   1_565  A
O1023     Cu2946   2.014   1_455  S
O1023      C1028   1.279   1_565  A
O1024     Cu1026   2.004       .  S
O1024      C1027   1.278   1_565  A
Cu1025     O2937   2.014   1_455  S
Cu1025     O2940   2.007       .  S
Cu1025    Cu1986   2.375   1_455  S
Cu1026     O2942   2.009       .  S
Cu1026     O2943   2.014       .  S
Cu1026    Cu1985   2.375   1_565  S
C1027      C1812   1.481       .  S
C1028      C1822   1.481       .  S
C1029      O1979   1.277       .  A
C1029      O2942   1.277   1_545  A
C1029      C1913   1.467       .  S
C1030      O1980   1.276       .  A
C1030      O2941   1.276   1_545  A
C1030      C1831   1.434       .  S
O1031     Cu2959   2.005       .  S
O1031      C1041   1.278       .  A
O1032     Cu1039   2.013   1_455  S
O1032      C1042   1.279       .  A
O1033     Cu1039   2.011       .  S
O1033      C1043   1.277       .  A
O1034     Cu1039   2.010   1_455  S
O1034      C1044   1.276       .  A
O1035     Cu1040   2.012   1_655  S
O1035      C1044   1.276   1_655  A
O1036     Cu1040   2.010       .  S
O1036      C1043   1.277   1_455  A
O1037     Cu1040   2.004       .  S
O1037      C1042   1.278       .  A
O1038     Cu2960   2.011       .  S
O1038      C1041   1.279       .  A
Cu1039     O2951   2.005       .  S
Cu1039    Cu1040   2.374   1_655  S
Cu1040     O2958   2.011   1_455  S
C1041      C1790   1.481       .  S
C1042      C1800   1.481       .  S
C1043      C1881   1.468       .  S
C1044      C1810   1.436       .  S
O1045     Cu1053   2.010       .  S
O1046     Cu1053   2.008       .  S
O1047     Cu1053   2.015       .  S
O1048     Cu1053   2.004       .  S
O1049     Cu1054   2.014       .  S
O1049      C1058   1.279   1_565  A
O1050     Cu1054   2.003       .  S
O1050      C1057   1.278   1_565  A
O1051     Cu1054   2.011       .  S
O1051      C1056   1.276   1_565  A
O1052     Cu1054   2.010       .  S
O1052      C1055   1.278   1_565  A
C1055      C1869   1.473       .  S
C1056      C1788   1.435       .  S
C1057      C1815   1.481       .  S
C1058      C1825   1.481       .  S
O1059     Cu1067   2.004       .  S
O1059      C1069   1.278       .  A
O1060     Cu1067   2.011       .  S
O1060      C1070   1.279       .  A
O1061     Cu1067   2.010       .  S
O1061      C1071   1.278       .  A
O1062     Cu1067   2.009       .  S
O1062      C1072   1.276       .  A
O1063     Cu1068   2.011       .  S
O1063      C1072   1.276       .  A
O1064     Cu1068   2.009       .  S
O1064      C1071   1.277       .  A
O1065     Cu1068   2.005       .  S
O1065      C1070   1.278       .  A
O1066     Cu1068   2.013       .  S
O1066      C1069   1.279       .  A
Cu1067    Cu1068   2.374       .  S
C1069      C1803   1.481       .  S
C1070      C1793   1.480       .  S
C1071      C1837   1.470       .  S
C1072      C1785   1.435       .  S
O1073     Cu1081   2.009       .  S
O1073      C1083   1.277       .  A
O1074     Cu1081   2.008   1_565  S
O1074      C3004   1.276       .  A
O1075      C1085   1.278       .  A
O1076     Cu1081   2.013   1_565  S
O1076      C1086   1.279       .  A
O1077     Cu1082   2.004   1_565  S
O1077      C3006   1.278   1_455  A
O1078      C3005   1.279   1_455  A
O1079     Cu1082   2.009       .  S
O1079      C1084   1.276   1_445  A
O1080     Cu1082   2.008   1_565  S
O1080      C3003   1.277   1_465  A
Cu1081    Cu3002   2.374       .  S
Cu1082    Cu3001   2.374   1_455  S
C1083      O3000   1.277   1_545  A
C1083      C1774   1.470       .  S
C1084      O2994   1.276       .  A
C1084      C1783   1.434       .  S
C1085      O2998   1.279       .  A
C1085      C3684   1.481       .  S
C1086      O2997   1.278       .  A
C1086      C3674   1.481       .  S
O1087     Cu1095   2.006       .  S
O1087      C1097   1.278   1_455  A
O1088     Cu1095   2.012       .  S
O1088      C1098   1.279   1_455  A
O1089     Cu1095   2.009       .  S
O1089      C1099   1.276   1_455  A
O1090     Cu1095   2.008       .  S
O1090      C1100   1.278   1_455  A
O1091     Cu1096   2.009       .  S
O1091      C3020   1.278       .  A
O1092     Cu1096   2.009       .  S
O1092      C3019   1.276       .  A
O1093     Cu1096   2.005       .  S
O1093      C3018   1.278       .  A
O1094     Cu1096   2.011       .  S
O1094      C3017   1.279       .  A
Cu1095    Cu3016   2.374   1_455  S
Cu1096    Cu3015   2.374       .  S
C1097      O3014   1.279       .  A
C1097      C1767   1.481       .  S
C1098      O3013   1.278       .  A
C1098      C1757   1.481       .  S
C1099      O3012   1.276       .  A
C1099      C1751   1.435       .  S
C1100      O3011   1.278       .  A
C1100      C1742   1.475       .  S
O1101      C1111   1.278       .  A
O1102     Cu1109   2.013   1_565  S
O1102      C1112   1.279       .  A
O1103     Cu1109   2.007       .  S
O1103      C1113   1.277       .  A
O1104     Cu1109   2.008   1_565  S
O1104      C1114   1.276       .  A
O1105     Cu1110   2.008       .  S
O1105      C1114   1.276   1_545  A
O1106     Cu1110   2.008   1_565  S
O1106      C1113   1.277   1_565  A
O1107     Cu1110   2.004   1_565  S
O1107      C1112   1.278       .  A
O1108      C1111   1.279       .  A
Cu1109    Cu1110   2.374       .  S
C1111      C1720   1.481       .  S
C1112      C1710   1.481       .  S
C1113      C1730   1.467       .  S
C1114      C1740   1.434       .  S
O1115     Cu1123   2.006       .  S
O1115      C1125   1.277       .  A
O1116     Cu1123   2.008       .  S
O1116      C1126   1.276       .  A
O1117     Cu1123   2.012       .  S
O1117      C1127   1.279       .  A
O1118     Cu1123   2.005       .  S
O1118      C1128   1.278       .  A
O1119     Cu1124   2.012       .  S
O1119      C1128   1.279       .  A
O1120     Cu1124   2.005       .  S
O1120      C1127   1.278       .  A
O1121     Cu1124   2.009       .  S
O1121      C1126   1.276       .  A
O1122     Cu1124   2.008       .  S
O1122      C1125   1.277       .  A
Cu1123    Cu1124   2.374       .  S
C1125      C1698   1.468       .  S
C1126      C1707   1.434       .  S
C1127      C1713   1.481       .  S
C1128      C1723   1.481       .  S
O1129     Cu1137   2.006       .  S
O1129      C1139   1.278   1_455  A
O1130     Cu1137   2.008   1_565  S
O1130      C1140   1.276   1_455  A
O1131      C1141   1.279   1_455  A
O1132     Cu1137   2.009   1_565  S
O1132      C1142   1.279   1_455  A
O1133     Cu1138   2.007   1_565  S
O1133      C3062   1.278       .  A
O1134      C3061   1.278       .  A
O1135     Cu1138   2.010   1_565  S
O1135      C3060   1.276       .  A
O1136     Cu1138   2.009       .  S
O1136      C3059   1.278       .  A
Cu1137    Cu3058   2.373   1_455  S
Cu1138    Cu3057   2.373       .  S
C1139      O3056   1.278       .  A
C1139      C1688   1.481       .  S
C1140      O3055   1.276       .  A
C1140      C1784   1.434       .  S
C1141      O3054   1.278       .  A
C1141      C1678   1.481       .  S
C1142      O3053   1.278       .  A
C1142      C1668   1.481       .  S
O1143     Cu1151   2.008       .  S
O1143      C1153   1.276   1_455  A
O1144     Cu1151   2.006       .  S
O1144      C1154   1.278   1_455  A
O1145     Cu1151   2.007       .  S
O1145      C1155   1.278   1_455  A
O1146     Cu1151   2.007       .  S
O1146      C1156   1.278   1_455  A
O1147     Cu1152   2.009       .  S
O1147      C3076   1.279       .  A
O1148     Cu1152   2.010       .  S
O1148      C3075   1.279       .  A
O1149     Cu1152   2.010       .  S
O1149      C3074   1.278       .  A
O1150     Cu1152   2.011       .  S
O1150      C3073   1.276       .  A
Cu1151    Cu3072   2.373   1_455  S
Cu1152    Cu3071   2.373       .  S
C1153      O3070   1.276       .  A
C1153      C1752   1.435       .  S
C1154      O3069   1.278       .  A
C1154      C1658   1.481       .  S
C1155      O3068   1.279       .  A
C1155      C1681   1.481       .  S
C1156      O3067   1.279       .  A
C1156      C1671   1.481       .  S
O1157     Cu1165   2.008       .  S
O1157      C1167   1.278       .  A
O1158     Cu1165   2.008   1_565  S
O1158      C1168   1.276       .  A
O1159      C1169   1.278       .  A
O1160     Cu1165   2.007   1_565  S
O1160      C1170   1.278       .  A
O1161     Cu1166   2.010   1_565  S
O1161      C1170   1.279       .  A
O1162      C1169   1.279       .  A
O1163     Cu1166   2.007       .  S
O1163      C1168   1.276   1_545  A
O1164     Cu1166   2.006       .  S
O1164      C1167   1.278       .  A
Cu1165    Cu1166   2.373       .  S
C1167      C1648   1.480       .  S
C1168      C1739   1.433       .  S
C1169      C1638   1.481       .  S
C1170      C1628   1.481       .  S
O1171     Cu1179   2.009       .  S
O1171      C1181   1.276       .  A
O1172     Cu1179   2.010       .  S
O1172      C1182   1.279       .  A
O1173     Cu1179   2.009       .  S
O1173      C1183   1.278       .  A
O1174     Cu1179   2.008       .  S
O1174      C1184   1.278       .  A
O1175     Cu1180   2.009       .  S
O1175      C1184   1.278       .  A
O1176     Cu1180   2.007       .  S
O1176      C1183   1.278       .  A
O1177     Cu1180   2.006       .  S
O1177      C1182   1.278       .  A
O1178     Cu1180   2.009       .  S
O1178      C1181   1.276       .  A
Cu1179    Cu1180   2.373       .  S
C1181      C1708   1.434       .  S
C1182      C1618   1.481       .  S
C1183      C1641   1.481       .  S
C1184      C1631   1.481       .  S
O1185     Cu3113   2.007       .  S
O1185      C1195   1.278   1_565  A
O1186     Cu1193   2.008       .  S
O1186      C1196   1.278   1_565  A
O1187     Cu1193   2.010       .  S
O1187      C1197   1.279   1_565  A
O1188     Cu1193   2.011       .  S
O1188      C1198   1.277   1_565  A
O1189     Cu3114   2.009       .  S
O1190     Cu3114   2.007       .  S
O1191     Cu3114   2.009       .  S
O1192     Cu1194   2.008       .  S
Cu1193     O3105   2.007       .  S
Cu1193    Cu2154   2.373   1_565  S
Cu1194     O3109   2.009       .  S
Cu1194     O3110   2.007       .  S
Cu1194     O3111   2.009   1_455  S
Cu1194    Cu2153   2.373       .  S
C1195      C1596   1.481       .  S
C1196      C1586   1.481       .  S
C1197      C1606   1.481       .  S
O1199     Cu1207   2.008       .  S
O1199      C1209   1.278       .  A
O1200     Cu1207   2.008   1_455  S
O1200      C1210   1.276       .  A
O1201     Cu1207   2.009   1_455  S
O1201      C1211   1.278       .  A
O1202     Cu3127   2.007       .  S
O1202      C1212   1.278       .  A
O1203     Cu3128   2.009       .  S
O1203      C1212   1.278       .  A
O1204     Cu1208   2.007       .  S
O1204      C1211   1.278       .  A
O1205     Cu1208   2.008       .  S
O1205      C1210   1.276       .  A
O1206     Cu1208   2.007       .  S
O1206      C1209   1.278   1_455  A
Cu1207     O3122   2.007       .  S
Cu1207    Cu1208   2.373   1_655  S
Cu1208     O3123   2.009   1_455  S
C1209      C1577   1.480       .  S
C1210      C1584   1.434       .  S
C1211      C1564   1.481       .  S
C1212      C1554   1.481       .  S
O1213     Cu1221   2.007       .  S
O1214     Cu1221   2.009       .  S
O1215     Cu1221   2.009       .  S
O1216     Cu1221   2.008       .  S
O1217     Cu1222   2.008       .  S
O1217      C1226   1.278   1_565  A
O1218     Cu1222   2.007       .  S
O1218      C1225   1.278   1_565  A
O1219     Cu1222   2.011       .  S
O1219      C1224   1.276   1_565  A
O1220     Cu1222   2.009       .  S
O1220      C1223   1.279   1_565  A
C1223      C1542   1.481       .  S
C1224      C1551   1.435       .  S
C1225      C1589   1.481       .  S
C1226      C1599   1.481       .  S
O1227     Cu1235   2.007       .  S
O1227      C1237   1.278       .  A
O1228     Cu1235   2.008       .  S
O1228      C1238   1.278       .  A
O1229     Cu1235   2.009       .  S
O1229      C1239   1.276       .  A
O1230     Cu1235   2.008       .  S
O1230      C1240   1.278       .  A
O1231     Cu1236   2.010       .  S
O1231      C1240   1.278       .  A
O1232     Cu1236   2.010       .  S
O1232      C1239   1.276       .  A
O1233     Cu1236   2.008       .  S
O1233      C1238   1.279       .  A
O1234     Cu1236   2.009       .  S
O1234      C1237   1.278       .  A
Cu1235    Cu1236   2.373       .  S
C1237      C1557   1.481       .  S
C1238      C1567   1.481       .  S
C1239      C1539   1.435       .  S
C1240      C1530   1.482       .  S
O1241     Cu1249   2.006       .  S
O1242     Cu1249   2.009       .  S
O1242      C1252   1.277   1_565  A
O1243     Cu1249   2.012       .  S
O1244     Cu3169   2.006       .  S
O1245     Cu3170   2.012   1_455  S
O1245      C1254   1.279       .  A
O1246     Cu1250   2.004       .  S
O1246      C1253   1.278       .  A
O1247     Cu1250   2.010       .  S
O1248     Cu1250   2.012       .  S
O1248      C1251   1.277       .  A
Cu1249     O3164   2.006       .  S
Cu1250     O3165   2.012       .  S
C1251      C1616   1.435       .  S
C1252      C1777   1.472       .  S
O1255     Cu1263   2.006   1_455  S
O1255      C1265   1.276       .  A
O1256     Cu1263   2.007       .  S
O1256      C1266   1.277       .  A
O1257     Cu1263   2.013   1_455  S
O1257      C1267   1.279       .  A
O1258     Cu3183   2.004       .  S
O1258      C1268   1.278       .  A
O1259     Cu3184   2.011       .  S
O1259      C1268   1.279       .  A
O1260     Cu1264   2.005       .  S
O1260      C1267   1.278       .  A
O1261     Cu1264   2.008       .  S
O1261      C1266   1.277   1_455  A
O1262     Cu1264   2.009       .  S
O1262      C1265   1.276       .  A
Cu1263     O3178   2.004       .  S
Cu1263    Cu1264   2.375   1_655  S
Cu1264     O3179   2.011   1_455  S
C1265      C1583   1.434       .  S
C1266      C1745   1.467       .  S
C1267      C1500   1.481       .  S
C1268      C1490   1.480       .  S
O1269     Cu1277   2.010       .  S
O1270     Cu1277   2.012       .  S
O1270      C1280   1.277       .  A
O1271     Cu1277   2.012       .  S
O1272     Cu1277   2.005       .  S
O1273     Cu1278   2.011       .  S
O1273      C1282   1.279   1_565  A
O1274     Cu1278   2.006       .  S
O1274      C1281   1.278   1_565  A
O1275     Cu1278   2.007       .  S
O1276     Cu1278   2.009       .  S
O1276      C1279   1.278   1_565  A
C1279      C1733   1.475       .  S
C1280      C1552   1.435       .  S
C1281      C1523   1.481       .  S
C1282      C1513   1.481       .  S
O1283     Cu1291   2.005       .  S
O1283      C1293   1.278       .  A
O1284     Cu1291   2.011       .  S
O1284      C1294   1.279       .  A
O1285     Cu1291   2.009       .  S
O1285      C1295   1.278       .  A
O1286     Cu1291   2.010       .  S
O1286      C1296   1.276       .  A
O1287     Cu1292   2.008       .  S
O1287      C1296   1.276       .  A
O1288     Cu1292   2.007       .  S
O1288      C1295   1.277       .  A
O1289     Cu1292   2.004       .  S
O1289      C1294   1.278       .  A
O1290     Cu1292   2.012       .  S
O1290      C1293   1.279       .  A
Cu1291    Cu1292   2.374       .  S
C1293      C1503   1.481       .  S
C1294      C1493   1.480       .  S
C1295      C1701   1.471       .  S
C1296      C1540   1.435       .  S
O1297     Cu1305   2.011       .  S
O1298     Cu1305   2.013   1_655  S
O1299     Cu1305   2.008       .  S
O1300     Cu3225   2.008       .  S
O1301     Cu3226   2.009       .  S
O1301      C1310   1.278   1_565  A
O1302     Cu1306   2.008       .  S
O1302      C1309   1.278   1_565  A
O1303     Cu1306   2.005       .  S
O1303      C1308   1.278   1_465  A
O1304     Cu1306   2.006       .  S
O1304      C1307   1.276   1_565  A
Cu1305     O3220   2.008   1_455  S
Cu1306     O3221   2.009   1_455  S
C1307      C1832   1.434       .  S
C1308      C1609   1.481       .  S
C1309      C1480   1.481       .  S
C1310      C1470   1.481       .  S
O1311     Cu1319   2.011       .  S
O1311      C1321   1.276       .  A
O1312     Cu1319   2.010       .  S
O1312      C1322   1.278   1_455  A
O1313     Cu3239   2.009       .  S
O1313      C1323   1.279       .  A
O1314     Cu1319   2.008       .  S
O1314      C1324   1.278       .  A
O1315     Cu1320   2.008       .  S
O1315      C1324   1.278       .  A
O1316     Cu3240   2.007       .  S
O1316      C1323   1.278       .  A
O1317     Cu1320   2.008   1_655  S
O1317      C1322   1.278       .  A
O1318     Cu1320   2.009       .  S
O1318      C1321   1.276       .  A
Cu1319     O3233   2.009   1_455  S
Cu1319    Cu1320   2.373       .  S
Cu1320     O3236   2.007   1_455  S
C1321      C1809   1.436       .  S
C1322      C1574   1.481       .  S
C1323      C1450   1.481       .  S
C1324      C1460   1.481       .  S
O1325     Cu1333   2.006       .  S
O1325      C1335   1.276   1_565  A
O1326     Cu1333   2.004       .  S
O1326      C1336   1.278   1_565  A
O1327     Cu1333   2.008       .  S
O1327      C1337   1.279   1_565  A
O1328     Cu1333   2.009       .  S
O1328      C1338   1.278   1_565  A
O1329     Cu1334   2.008       .  S
O1330     Cu1334   2.008       .  S
O1331     Cu1334   2.014       .  S
O1332     Cu1334   2.012       .  S
C1335      C1787   1.434       .  S
C1336      C1545   1.481       .  S
C1337      C1483   1.481       .  S
C1338      C1473   1.481       .  S
O1339     Cu1347   2.011       .  S
O1339      C1349   1.278       .  A
O1340     Cu1347   2.011       .  S
O1340      C1350   1.276       .  A
O1341     Cu1347   2.007       .  S
O1341      C1351   1.278       .  A
O1342     Cu1347   2.008       .  S
O1342      C1352   1.278       .  A
O1343     Cu1348   2.008       .  S
O1343      C1352   1.278       .  A
O1344     Cu1348   2.009       .  S
O1344      C1351   1.278       .  A
O1345     Cu1348   2.009       .  S
O1345      C1350   1.276       .  A
O1346     Cu1348   2.009       .  S
O1346      C1349   1.278       .  A
Cu1347    Cu1348   2.373       .  S
C1349      C1533   1.482       .  S
C1350      C1786   1.435       .  S
C1351      C1453   1.481       .  S
C1352      C1463   1.481       .  S
O1353     Cu1361   2.007   1_545  S
O1353      C1363   1.278   1_455  A
O1354     Cu1361   2.007       .  S
O1354      C1364   1.276   1_455  A
O1355     Cu1361   2.008       .  S
O1355      C1365   1.278   1_455  A
O1356      C1366   1.278   1_455  A
O1357      C3286   1.278       .  A
O1358     Cu1362   2.008       .  S
O1358      C3285   1.278       .  A
O1359     Cu1362   2.011       .  S
O1359      C3284   1.277       .  A
O1360     Cu1362   2.011   1_545  S
O1360      C3283   1.279       .  A
Cu1361    Cu3282   2.373   1_455  S
Cu1362    Cu3281   2.373       .  S
C1363      O3280   1.279       .  A
C1363      C1691   1.481       .  S
C1364      O3279   1.277       .  A
C1364      C1919   1.435       .  S
C1365      O3278   1.278       .  A
C1365      C1430   1.481       .  S
C1366      O3277   1.278       .  A
C1366      C1440   1.481       .  S
O1367     Cu1375   2.008       .  S
O1367      C1377   1.278   1_455  A
O1368     Cu1375   2.007       .  S
O1368      C1378   1.276   1_455  A
O1369     Cu1375   2.008       .  S
O1369      C1379   1.278   1_455  A
O1370     Cu1375   2.009       .  S
O1370      C1380   1.278   1_455  A
O1371     Cu1376   2.008       .  S
O1371      C3300   1.278       .  A
O1372     Cu1376   2.009       .  S
O1372      C3299   1.278       .  A
O1373     Cu1376   2.010       .  S
O1373      C3298   1.276       .  A
O1374     Cu1376   2.010       .  S
O1374      C3297   1.278       .  A
Cu1375    Cu3296   2.373   1_455  S
Cu1376    Cu3295   2.373       .  S
C1377      O3294   1.278       .  A
C1377      C1661   1.481       .  S
C1378      O3293   1.276       .  A
C1378      C3807   1.435       .  S
C1379      O3292   1.278       .  A
C1379      C1443   1.481       .  S
C1380      O3291   1.278       .  A
C1380      C1433   1.481       .  S
O1381     Cu1389   2.010       .  S
O1381      C1391   1.276       .  A
O1382     Cu1389   2.007   1_545  S
O1382      C1392   1.278       .  A
O1383      C1393   1.278       .  A
O1384     Cu1389   2.009       .  S
O1384      C1394   1.278       .  A
O1385     Cu1390   2.008       .  S
O1385      C1394   1.278       .  A
O1386      C1393   1.278       .  A
O1387     Cu1390   2.009       .  S
O1387      C1392   1.278   1_565  A
O1388     Cu1390   2.009       .  S
O1388      C1391   1.276       .  A
Cu1389    Cu1390   2.373       .  S
C1391      C1875   1.435       .  S
C1392      C1651   1.481       .  S
C1393      C1420   1.481       .  S
C1394      C1410   1.481       .  S
O1395     Cu1403   2.008       .  S
O1395      C1405   1.278       .  A
O1396     Cu1403   2.009       .  S
O1396      C1406   1.276       .  A
O1397     Cu1403   2.008       .  S
O1397      C1407   1.278       .  A
O1398     Cu1403   2.008       .  S
O1398      C1408   1.278       .  A
O1399     Cu1404   2.009       .  S
O1399      C1408   1.278       .  A
O1400     Cu1404   2.008       .  S
O1400      C1407   1.278       .  A
O1401     Cu1404   2.008       .  S
O1401      C1406   1.276       .  A
O1402     Cu1404   2.009       .  S
O1402      C1405   1.278       .  A
Cu1403    Cu1404   2.373       .  S
C1405      C1621   1.481       .  S
C1406      C1844   1.435       .  S
C1407      C1423   1.481       .  S
C1408      C1413   1.481       .  S
C1409      C1410   1.406       .  A
C1409      C1414   1.398       .  A
C1409      H1415   1.083       .  S
C1410      C1411   1.406       .  A
C1411      C1412   1.398       .  A
C1411      H1416   1.083       .  S
C1412      C1413   1.406       .  A
C1412      H1417   1.083       .  S
C1413      C1414   1.405       .  A
C1414      H1418   1.083       .  S
C1419      C1420   1.406       .  A
C1419      C1424   1.398       .  A
C1419      H1425   1.083       .  S
C1420      C1421   1.406       .  A
C1421      C1422   1.398       .  A
C1421      H1426   1.083       .  S
C1422      C1423   1.406       .  A
C1422      H1427   1.083       .  S
C1423      C1424   1.406       .  A
C1424      H1428   1.083       .  S
C1429      C1430   1.406   1_455  A
C1429      C1434   1.398       .  A
C1429      H1435   1.083       .  S
C1430      C3351   1.406       .  A
C1431      C3350   1.406       .  A
C1431      C1432   1.398       .  A
C1431      H1436   1.083       .  S
C1432      C3353   1.406       .  A
C1432      H1437   1.083       .  S
C1433      C3352   1.406       .  A
C1433      C1434   1.406   1_655  A
C1434      H1438   1.083       .  S
C1439      C1440   1.405   1_455  A
C1439      C1444   1.398       .  A
C1439      H1445   1.083       .  S
C1440      C3361   1.406       .  A
C1441      C3360   1.406       .  A
C1441      C1442   1.398       .  A
C1441      H1446   1.083       .  S
C1442      C3363   1.406       .  A
C1442      H1447   1.083       .  S
C1443      C3362   1.406       .  A
C1443      C1444   1.406   1_655  A
C1444      H1448   1.083       .  S
C1449      C1450   1.405       .  A
C1449      C1454   1.397       .  A
C1449      H1455   1.083       .  S
C1450      C1451   1.406       .  A
C1451      C1452   1.398       .  A
C1451      H1456   1.083       .  S
C1452      C1453   1.406       .  A
C1452      H1457   1.083       .  S
C1453      C1454   1.405       .  A
C1454      H1458   1.083       .  S
C1459      C1460   1.406       .  A
C1459      C1464   1.398       .  A
C1459      H1465   1.083       .  S
C1460      C1461   1.405       .  A
C1461      C1462   1.397       .  A
C1461      H1466   1.083       .  S
C1462      C1463   1.405       .  A
C1462      H1467   1.083       .  S
C1463      C1464   1.406       .  A
C1464      H1468   1.083       .  S
C1469      C1474   1.397       .  A
C1469      H1475   1.083       .  S
C1470      C1471   1.406   1_545  A
C1471      C1472   1.398       .  A
C1471      H1476   1.083       .  S
C1472      C1473   1.406   1_565  A
C1472      H1477   1.083       .  S
C1474      H1478   1.083       .  S
C1479      C1480   1.405   1_565  A
C1479      C1484   1.397       .  A
C1479      H1485   1.083       .  S
C1481      C1482   1.398       .  A
C1481      H1486   1.083       .  S
C1482      H1487   1.083       .  S
C1483      C1484   1.405   1_545  A
C1484      H1488   1.083       .  S
C1489      C1490   1.406       .  A
C1489      C1494   1.398       .  A
C1489      H1495   1.083       .  S
C1490      C1491   1.405       .  A
C1491      C1492   1.397       .  A
C1491      H1496   1.083       .  S
C1492      C1493   1.405       .  A
C1492      H1497   1.083       .  S
C1493      C1494   1.406       .  A
C1494      H1498   1.083       .  S
C1499      C1500   1.406       .  A
C1499      C1504   1.397       .  A
C1499      H1505   1.083       .  S
C1500      C1501   1.405       .  A
C1501      C1502   1.398       .  A
C1501      H1506   1.083       .  S
C1502      C1503   1.406       .  A
C1502      H1507   1.083       .  S
C1503      C1504   1.406       .  A
C1504      H1508   1.083       .  S
C1509      C1514   1.397       .  A
C1509      H1515   1.083       .  S
C1510      C1511   1.405   1_545  A
C1511      C1512   1.398       .  A
C1511      H1516   1.083       .  S
C1512      C1513   1.406   1_565  A
C1512      H1517   1.083       .  S
C1514      H1518   1.083       .  S
C1519      C1520   1.405   1_565  A
C1519      C1524   1.397       .  A
C1519      H1525   1.083       .  S
C1521      C1522   1.399       .  A
C1521      H1526   1.083       .  S
C1522      H1527   1.083       .  S
C1523      C1524   1.405   1_545  A
C1524      H1528   1.083       .  S
C1529      C1530   1.406       .  A
C1529      C1534   1.398   1_554  A
C1529      H1535   1.083       .  S
C1530      C1531   1.406       .  A
C1531      C1532   1.399   1_554  A
C1531      H1536   1.083       .  S
C1532      C1533   1.406       .  A
C1532      H1537   1.083       .  S
C1533      C1534   1.406       .  A
C1534      H1538   1.083       .  S
C1539      C1540   1.206       .  T
C1541      C1542   1.405   1_565  A
C1541      C1546   1.397   1_554  A
C1541      H1547   1.083       .  S
C1543      C1544   1.399   1_554  A
C1543      H1548   1.083       .  S
C1544      H1549   1.083       .  S
C1545      C1546   1.406   1_545  A
C1546      H1550   1.083       .  S
C1553      C1554   1.405       .  A
C1553      C1558   1.397       .  A
C1553      H1559   1.083       .  S
C1554      C1555   1.406       .  A
C1555      C1556   1.399       .  A
C1555      H1560   1.083       .  S
C1556      C1557   1.406       .  A
C1556      H1561   1.083       .  S
C1557      C1558   1.405       .  A
C1558      H1562   1.083       .  S
C1563      C1564   1.406       .  A
C1563      C1568   1.399       .  A
C1563      H1569   1.083       .  S
C1564      C1565   1.405       .  A
C1565      C1566   1.397       .  A
C1565      H1570   1.083       .  S
C1566      C1567   1.405       .  A
C1566      H1571   1.083       .  S
C1567      C1568   1.406       .  A
C1568      H1572   1.083       .  S
C1573      C1574   1.406       .  A
C1573      C1578   1.397   1_556  A
C1573      H1579   1.083       .  S
C1574      C3495   1.406   1_655  A
C1575      C3494   1.406       .  A
C1575      C1576   1.398   1_556  A
C1575      H1580   1.083       .  S
C1576      C3497   1.406       .  A
C1576      H1581   1.083       .  S
C1577      C3496   1.406   1_655  A
C1577      C1578   1.405       .  A
C1578      H1582   1.083       .  S
C1583      C1584   1.205       .  T
C1585      C1586   1.406   1_565  A
C1585      C1590   1.397       .  A
C1585      H1591   1.083       .  S
C1587      C1588   1.398       .  A
C1587      H1592   1.083       .  S
C1588      H1593   1.083       .  S
C1589      C1590   1.406   1_545  A
C1590      H1594   1.083       .  S
C1595      C1600   1.397       .  A
C1595      H1601   1.083       .  S
C1596      C1597   1.406   1_545  A
C1597      C1598   1.398       .  A
C1597      H1602   1.083       .  S
C1598      C1599   1.406   1_565  A
C1598      H1603   1.083       .  S
C1600      H1604   1.083       .  S
C1605      C2566   1.406       .  A
C1605      C1610   1.398   1_554  A
C1605      H1611   1.083       .  S
C1606      C2565   1.406       .  A
C1606      C1607   1.405   1_545  A
C1607      C1608   1.397   1_554  A
C1607      H1612   1.083       .  S
C1608      C3529   1.406   1_565  A
C1608      H1613   1.083       .  S
C1609      C3528   1.406   1_645  A
C1610      H1614   1.083       .  S
C1615      C1616   1.206       .  T
C1617      C1618   1.405       .  A
C1617      C1622   1.398       .  A
C1617      H1623   1.083       .  S
C1618      C1619   1.406       .  A
C1619      C1620   1.397       .  A
C1619      H1624   1.083       .  S
C1620      C1621   1.405       .  A
C1620      H1625   1.083       .  S
C1621      C1622   1.406       .  A
C1622      H1626   1.083       .  S
C1627      C1628   1.405       .  A
C1627      C1632   1.397       .  A
C1627      H1633   1.083       .  S
C1628      C1629   1.406       .  A
C1629      C1630   1.398       .  A
C1629      H1634   1.083       .  S
C1630      C1631   1.406       .  A
C1630      H1635   1.083       .  S
C1631      C1632   1.405       .  A
C1632      H1636   1.083       .  S
C1637      C1638   1.406       .  A
C1637      C1642   1.398       .  A
C1637      H1643   1.083       .  S
C1638      C1639   1.405       .  A
C1639      C1640   1.397       .  A
C1639      H1644   1.083       .  S
C1640      C1641   1.405       .  A
C1640      H1645   1.083       .  S
C1641      C1642   1.406       .  A
C1642      H1646   1.083       .  S
C1647      C1652   1.398       .  A
C1647      H1653   1.083       .  S
C1648      C1649   1.405       .  A
C1649      C1650   1.397       .  A
C1649      H1654   1.083       .  S
C1650      C1651   1.405       .  A
C1650      H1655   1.083       .  S
C1652      H1656   1.083       .  S
C1657      C3578   1.406       .  A
C1657      C1662   1.399       .  A
C1657      H1663   1.083       .  S
C1658      C3577   1.406       .  A
C1658      C1659   1.405   1_655  A
C1659      C1660   1.397       .  A
C1659      H1664   1.083       .  S
C1660      C1661   1.405   1_455  A
C1660      H1665   1.083       .  S
C1661      C3582   1.406       .  A
C1662      C3581   1.406       .  A
C1662      H1666   1.083       .  S
C1667      C1668   1.405   1_455  A
C1667      C1672   1.398       .  A
C1667      H1673   1.083       .  S
C1668      C3589   1.406       .  A
C1669      C3588   1.406       .  A
C1669      C1670   1.398       .  A
C1669      H1674   1.083       .  S
C1670      C3591   1.405       .  A
C1670      H1675   1.083       .  S
C1671      C3590   1.405       .  A
C1671      C1672   1.406   1_655  A
C1672      H1676   1.083       .  S
C1677      C1678   1.405   1_455  A
C1677      C1682   1.398       .  A
C1677      H1683   1.083       .  S
C1678      C3599   1.406       .  A
C1679      C3598   1.406       .  A
C1679      C1680   1.398       .  A
C1679      H1684   1.083       .  S
C1680      C3601   1.405       .  A
C1680      H1685   1.083       .  S
C1681      C3600   1.405       .  A
C1681      C1682   1.406   1_655  A
C1682      H1686   1.083       .  S
C1687      C1692   1.397       .  A
C1687      H1693   1.083       .  S
C1688      C3609   1.406       .  A
C1689      C3608   1.406       .  A
C1689      C1690   1.398       .  A
C1689      H1694   1.083       .  S
C1690      C3611   1.406       .  A
C1690      H1695   1.083       .  S
C1691      C3610   1.406       .  A
C1692      H1696   1.083       .  S
C1697      C1698   1.403       .  A
C1697      C1702   1.398       .  A
C1697      H1703   1.083       .  S
C1698      C1699   1.403       .  A
C1699      C1700   1.398       .  A
C1699      H1704   1.083       .  S
C1700      C1701   1.403       .  A
C1700      H1705   1.083       .  S
C1701      C1702   1.404       .  A
C1702      H1706   1.083       .  S
C1707      C1708   1.205       .  T
C1709      C1710   1.406       .  A
C1709      C1714   1.397       .  A
C1709      H1715   1.083       .  S
C1710      C1711   1.405       .  A
C1711      C1712   1.398       .  A
C1711      H1716   1.083       .  S
C1712      C1713   1.406       .  A
C1712      H1717   1.083       .  S
C1713      C1714   1.405       .  A
C1714      H1718   1.083       .  S
C1719      C1720   1.406       .  A
C1719      C1724   1.397       .  A
C1719      H1725   1.083       .  S
C1720      C1721   1.405       .  A
C1721      C1722   1.398       .  A
C1721      H1726   1.083       .  S
C1722      C1723   1.406       .  A
C1722      H1727   1.083       .  S
C1723      C1724   1.405       .  A
C1724      H1728   1.083       .  S
C1729      C1730   1.402   1_565  A
C1729      C1734   1.398       .  A
C1729      H1735   1.083       .  S
C1731      C1732   1.398       .  A
C1731      H1736   1.084       .  S
C1732      H1737   1.083       .  S
C1733      C1734   1.405   1_545  A
C1734      H1738   1.083       .  S
C1739      C1740   1.205       .  T
C1741      C3662   1.405       .  A
C1741      C1746   1.399       .  A
C1741      H1747   1.083       .  S
C1742      C3661   1.405       .  A
C1742      C1743   1.405   1_655  A
C1743      C1744   1.398       .  A
C1743      H1748   1.083       .  S
C1744      C1745   1.401   1_455  A
C1744      H1749   1.084       .  S
C1745      C3666   1.402       .  A
C1746      C3665   1.402       .  A
C1746      H1750   1.083       .  S
C1751      C1752   1.206       .  T
C1753      C3674   1.405       .  A
C1753      C1758   1.398       .  A
C1753      H1759   1.083       .  S
C1754      C3006   1.481       .  S
C1754      C3673   1.405       .  A
C1754      C1755   1.406   1_655  A
C1755      C1756   1.398       .  A
C1755      H1760   1.083       .  S
C1756      C1757   1.405   1_455  A
C1756      H1761   1.083       .  S
C1757      C3678   1.406       .  A
C1758      C3677   1.406       .  A
C1758      H1762   1.083       .  S
C1763      C3684   1.406       .  A
C1763      C1768   1.398       .  A
C1763      H1769   1.083       .  S
C1764      C3005   1.481       .  S
C1764      C3683   1.406       .  A
C1764      C1765   1.405   1_655  A
C1765      C1766   1.398       .  A
C1765      H1770   1.083       .  S
C1766      C1767   1.406   1_455  A
C1766      H1771   1.083       .  S
C1767      C3688   1.405       .  A
C1768      C3687   1.405       .  A
C1768      H1772   1.083       .  S
C1773      C3694   1.403   1_465  A
C1773      C1778   1.398       .  A
C1773      H1779   1.083       .  S
C1774      C3693   1.403   1_545  A
C1775      C1776   1.398       .  A
C1775      H1780   1.083       .  S
C1776      H1781   1.083       .  S
C1777      C3698   1.404   1_545  A
C1778      C3697   1.404   1_465  A
C1778      H1782   1.083       .  S
C1783      C1784   1.205       .  T
C1785      C1786   1.206       .  T
C1787      C1788   1.205       .  T
C1789      C1790   1.406       .  A
C1789      C1794   1.397       .  A
C1789      H1795   1.083       .  S
C1790      C1791   1.405       .  A
C1791      C1792   1.398       .  A
C1791      H1796   1.083       .  S
C1792      C1793   1.406       .  A
C1792      H1797   1.083       .  S
C1793      C1794   1.405       .  A
C1794      H1798   1.083       .  S
C1799      C1800   1.406       .  A
C1799      C1804   1.397       .  A
C1799      H1805   1.083       .  S
C1800      C1801   1.405       .  A
C1801      C1802   1.398       .  A
C1801      H1806   1.083       .  S
C1802      C1803   1.406       .  A
C1802      H1807   1.083       .  S
C1803      C1804   1.405       .  A
C1804      H1808   1.083       .  S
C1809      C1810   1.206       .  T
C1811      C1816   1.401       .  A
C1811      H1817   1.083       .  S
C1812      C1813   1.405   1_545  A
C1813      C1814   1.395       .  A
C1813      H1818   1.083       .  S
C1814      C1815   1.405   1_565  A
C1814      H1819   1.083       .  S
C1816      H1820   1.083       .  S
C1821      C1822   1.407   1_565  A
C1821      C1826   1.401       .  A
C1821      H1827   1.083       .  S
C1823      C1824   1.395       .  A
C1823      H1828   1.083       .  S
C1824      H1829   1.083       .  S
C1825      C1826   1.407   1_545  A
C1826      H1830   1.083       .  S
C1831      C1832   1.205       .  T
C1833      C1834   1.404       .  A
C1833      C1838   1.399       .  A
C1833      H1839   1.083       .  S
C1834      C1835   1.404       .  A
C1835      C1836   1.398       .  A
C1835      H1840   1.083       .  S
C1836      C1837   1.403       .  A
C1836      H1841   1.083       .  S
C1837      C1838   1.403       .  A
C1838      H1842   1.083       .  S
C1843      C1844   1.206       .  T
C1845      C1846   1.406       .  A
C1845      C1850   1.398       .  A
C1845      H1851   1.083       .  S
C1846      C1847   1.405       .  A
C1847      C1848   1.398       .  A
C1847      H1852   1.083       .  S
C1848      C1849   1.406       .  A
C1848      H1853   1.083       .  S
C1849      C1850   1.406       .  A
C1850      H1854   1.083       .  S
C1855      C1856   1.406       .  A
C1855      C1860   1.397       .  A
C1855      H1861   1.083       .  S
C1856      C1857   1.405       .  A
C1857      C1858   1.398       .  A
C1857      H1862   1.083       .  S
C1858      C1859   1.406       .  A
C1858      H1863   1.083       .  S
C1859      C1860   1.405       .  A
C1860      H1864   1.083       .  S
C1865      C1866   1.403   1_565  A
C1865      C1870   1.398       .  A
C1865      H1871   1.083       .  S
C1867      C1868   1.399       .  A
C1867      H1872   1.083       .  S
C1868      H1873   1.083       .  S
C1869      C1870   1.404   1_545  A
C1870      H1874   1.083       .  S
C1875      C1876   1.206       .  T
C1877      C1878   1.405       .  A
C1877      C1882   1.399       .  A
C1877      H1883   1.083       .  S
C1878      C3799   1.405       .  A
C1879      C3798   1.405   1_455  A
C1879      C1880   1.399       .  A
C1879      H1884   1.083       .  S
C1880      C1881   1.402   1_455  A
C1880      H1885   1.083       .  S
C1881      C3802   1.402       .  A
C1882      C3801   1.402       .  A
C1882      H1886   1.083       .  S
C1887      C3298   1.435       .  S
C1887      C1888   1.206       .  T
C1889      C3810   1.406   1_455  A
C1889      C1894   1.400       .  A
C1889      H1895   1.083       .  S
C1890      C2894   1.481       .  S
C1890      C3809   1.406       .  A
C1890      C1891   1.405       .  A
C1891      C1892   1.396       .  A
C1891      H1896   1.083       .  S
C1892      C1893   1.405       .  A
C1892      H1897   1.083       .  S
C1893      C3814   1.406       .  A
C1894      C3813   1.406   1_455  A
C1894      H1898   1.083       .  S
C1899      C1900   1.406       .  A
C1899      C1904   1.400       .  A
C1899      H1905   1.083       .  S
C1900      C2893   1.481       .  S
C1900      C3821   1.405       .  A
C1901      C3820   1.405   1_455  A
C1901      C1902   1.395       .  A
C1901      H1906   1.083       .  S
C1902      C3823   1.405   1_455  A
C1902      H1907   1.083       .  S
C1903      C3822   1.405       .  A
C1903      C1904   1.406       .  A
C1904      H1908   1.083       .  S
C1909      C2870   1.405   1_455  A
C1909      C1914   1.398       .  A
C1909      H1915   1.083       .  S
C1910      C2869   1.405       .  A
C1910      C1911   1.405   1_545  A
C1911      C1912   1.398       .  A
C1911      H1916   1.083       .  S
C1912      C1913   1.402   1_565  A
C1912      H1917   1.083       .  S
C1913      C2874   1.401       .  A
C1914      C2873   1.401   1_455  A
C1914      H1918   1.083       .  S
C1919      C1920   1.206       .  T
O1921     Cu1929   2.009       .  S
O1922     Cu1929   2.009       .  S
O1922      C2892   1.278   1_565  A
O1923     Cu1929   2.013   1_545  S
O1924     Cu2889   2.005       .  S
O1925     Cu1930   2.013       .  S
O1925      C1934   1.279       .  A
O1926     Cu2890   2.005       .  S
O1926      C1933   1.278       .  A
O1927     Cu1930   2.008       .  S
O1928     Cu1930   2.011       .  S
O1928      C2891   1.276       .  A
Cu1929     O2884   2.005       .  S
Cu1930     O2886   2.005       .  S
C1931      O2888   1.276       .  A
C1931      C3840   1.435       .  S
C1932      O2882   1.278       .  A
C1932      C2870   1.476       .  S
O1935     Cu1943   2.009       .  S
O1935      C1945   1.278       .  A
O1936     Cu1943   2.009       .  S
O1936      C1946   1.276       .  A
O1937     Cu1943   2.013       .  S
O1937      C1947   1.279       .  A
O1938     Cu1943   2.005       .  S
O1938      C1948   1.278       .  A
O1939     Cu1944   2.013       .  S
O1940     Cu1944   2.005       .  S
O1941     Cu1944   2.010       .  S
O1942     Cu1944   2.009       .  S
C1945      C2838   1.476       .  S
C1946      C2848   1.435       .  S
C1947      C2863   1.481       .  S
C1948      C2853   1.481       .  S
O1949     Cu1957   2.010       .  S
O1949      C1959   1.276       .  A
O1950     Cu1957   2.011       .  S
O1950      C1960   1.278       .  A
O1951     Cu2917   2.003       .  S
O1951      C1961   1.278       .  A
O1952     Cu1957   2.013       .  S
O1952      C1962   1.279       .  A
O1953     Cu1958   2.005       .  S
O1953      C1962   1.278       .  A
O1954     Cu2918   2.012   1_545  S
O1954      C1961   1.279       .  A
O1955     Cu1958   2.010       .  S
O1955      C1960   1.278       .  A
O1956     Cu1958   2.010       .  S
O1956      C1959   1.276       .  A
Cu1957     O2911   2.003       .  S
Cu1957    Cu1958   2.374       .  S
Cu1958     O2914   2.012       .  S
C1959      C2836   1.435       .  S
C1960      C2826   1.471       .  S
C1961      C2816   1.480       .  S
C1962      C2809   1.482       .  S
O1963     Cu1971   2.004       .  S
O1963      C1973   1.278       .  A
O1964     Cu1971   2.012       .  S
O1964      C1974   1.279       .  A
O1965     Cu1971   2.008       .  S
O1965      C1975   1.278       .  A
O1966     Cu1971   2.009       .  S
O1966      C1976   1.276       .  A
O1967     Cu1972   2.010       .  S
O1967      C1976   1.276       .  A
O1968     Cu1972   2.010       .  S
O1968      C1975   1.278       .  A
O1969     Cu1972   2.006       .  S
O1969      C1974   1.278       .  A
O1970     Cu1972   2.011       .  S
O1970      C1973   1.279       .  A
Cu1971    Cu1972   2.374       .  S
C1973      C2819   1.480       .  S
C1974      C2806   1.482       .  S
C1975      C2794   1.472       .  S
C1976      C2803   1.435       .  S
O1977      C2947   1.279       .  A
O1978     Cu1985   2.003       .  S
O1978      C2948   1.278       .  A
O1979     Cu1985   2.009       .  S
O1981     Cu1986   2.010   1_455  S
O1983      C1988   1.279       .  A
O1984     Cu1986   2.004       .  S
O1984      C1987   1.278       .  A
C1987      O2937   1.279       .  A
C1987      C2772   1.481       .  S
C1988      O2938   1.278       .  A
C1988      C2782   1.481       .  S
C1989      C2873   1.467       .  S
C1990      C2791   1.434       .  S
O1991      C2001   1.278       .  A
O1992     Cu1999   2.013       .  S
O1992      C2002   1.279       .  A
O1993     Cu1999   2.011       .  S
O1993      C2003   1.277       .  A
O1994     Cu1999   2.010       .  S
O1994      C2004   1.276       .  A
O1995     Cu2000   2.012       .  S
O1995      C2004   1.276       .  A
O1996     Cu2000   2.010       .  S
O1996      C2003   1.277       .  A
O1997     Cu2000   2.004       .  S
O1997      C2002   1.278       .  A
O1998      C2001   1.279       .  A
Cu1999    Cu2000   2.374       .  S
C2001      C2750   1.481       .  S
C2002      C2760   1.481       .  S
C2003      C2841   1.468       .  S
C2004      C2770   1.436       .  S
O2005     Cu2013   2.010       .  S
O2005      C2975   1.278       .  A
O2006     Cu2013   2.008       .  S
O2006      C2976   1.276       .  A
O2007     Cu2013   2.015       .  S
O2007      C2977   1.279       .  A
O2008     Cu2013   2.004       .  S
O2008      C2978   1.278       .  A
O2009     Cu2014   2.014       .  S
O2009      C2018   1.279       .  A
O2010     Cu2014   2.003       .  S
O2010      C2017   1.278       .  A
O2011     Cu2014   2.011       .  S
O2011      C2016   1.276       .  A
O2012     Cu2014   2.010       .  S
O2012      C2015   1.278       .  A
Cu2013    Cu2974   2.374   1_545  S
Cu2014    Cu2973   2.374       .  S
C2015      O2965   1.278       .  A
C2015      C2829   1.473       .  S
C2016      O2966   1.276       .  A
C2016      C2748   1.435       .  S
C2017      O2967   1.279       .  A
C2017      C2775   1.481       .  S
C2018      O2968   1.278       .  A
C2018      C2785   1.481       .  S
O2019     Cu2027   2.004       .  S
O2019      C2029   1.278       .  A
O2020     Cu2027   2.011       .  S
O2020      C2030   1.279       .  A
O2021     Cu2027   2.010       .  S
O2021      C2031   1.278       .  A
O2022     Cu2027   2.009       .  S
O2022      C2032   1.276       .  A
O2023     Cu2028   2.011       .  S
O2023      C2032   1.276       .  A
O2024     Cu2028   2.009       .  S
O2024      C2031   1.277       .  A
O2025     Cu2028   2.005       .  S
O2025      C2030   1.278       .  A
O2026     Cu2028   2.013       .  S
O2026      C2029   1.279       .  A
Cu2027    Cu2028   2.374       .  S
C2029      C2763   1.481       .  S
C2030      C2753   1.480       .  S
C2031      C2797   1.470       .  S
C2032      C2745   1.435       .  S
O2033     Cu2041   2.009       .  S
O2033      C2043   1.277       .  A
O2034     Cu2041   2.008       .  S
O2035     Cu3001   2.006       .  S
O2035      C2045   1.278       .  A
O2036     Cu2041   2.013       .  S
O2036      C2046   1.279       .  A
O2037     Cu2042   2.004       .  S
O2038     Cu3002   2.011       .  S
O2039     Cu2042   2.009       .  S
O2039      C2044   1.276       .  A
O2040     Cu2042   2.008       .  S
Cu2041     O2995   2.006       .  S
Cu2042     O2998   2.011       .  S
C2043      C2734   1.470       .  S
C2044      C2743   1.434       .  S
O2047     Cu2055   2.006       .  S
O2047      C2057   1.278       .  A
O2048     Cu2055   2.012       .  S
O2048      C2058   1.279       .  A
O2049     Cu2055   2.009       .  S
O2049      C2059   1.276       .  A
O2050     Cu2055   2.008       .  S
O2050      C2060   1.278       .  A
O2051     Cu2056   2.009       .  S
O2052     Cu2056   2.009       .  S
O2053     Cu2056   2.005       .  S
O2054     Cu2056   2.011       .  S
C2057      C2727   1.481       .  S
C2058      C2717   1.481       .  S
C2059      C2711   1.435       .  S
C2060      C2702   1.475       .  S
O2061     Cu3029   2.004       .  S
O2061      C2071   1.278       .  A
O2062     Cu2069   2.013       .  S
O2062      C2072   1.279       .  A
O2063     Cu2069   2.007       .  S
O2063      C2073   1.277       .  A
O2064     Cu2069   2.008       .  S
O2064      C2074   1.276       .  A
O2065     Cu2070   2.008       .  S
O2065      C2074   1.276       .  A
O2066     Cu2070   2.008       .  S
O2066      C2073   1.277       .  A
O2067     Cu2070   2.004       .  S
O2067      C2072   1.278       .  A
O2068     Cu3030   2.012       .  S
O2068      C2071   1.279       .  A
Cu2069     O3021   2.004       .  S
Cu2069    Cu2070   2.374       .  S
Cu2070     O3028   2.012       .  S
C2071      C2680   1.481       .  S
C2072      C2670   1.481       .  S
C2073      C2690   1.467       .  S
C2074      C2700   1.434       .  S
O2075     Cu2083   2.006       .  S
O2075      C2085   1.277       .  A
O2076     Cu2083   2.008       .  S
O2076      C2086   1.276       .  A
O2077     Cu2083   2.012       .  S
O2077      C2087   1.279       .  A
O2078     Cu2083   2.005       .  S
O2078      C2088   1.278       .  A
O2079     Cu2084   2.012       .  S
O2079      C2088   1.279       .  A
O2080     Cu2084   2.005       .  S
O2080      C2087   1.278       .  A
O2081     Cu2084   2.009       .  S
O2081      C2086   1.276       .  A
O2082     Cu2084   2.008       .  S
O2082      C2085   1.277       .  A
Cu2083    Cu2084   2.374       .  S
C2085      C2658   1.468       .  S
C2086      C2667   1.434       .  S
C2087      C2673   1.481       .  S
C2088      C2683   1.481       .  S
O2089     Cu2097   2.006       .  S
O2089      C2099   1.278       .  A
O2090     Cu2097   2.008       .  S
O2090      C2100   1.276       .  A
O2091     Cu3057   2.010       .  S
O2091      C2101   1.279       .  A
O2092     Cu2097   2.009       .  S
O2092      C2102   1.279       .  A
O2093     Cu2098   2.007       .  S
O2094     Cu3058   2.007       .  S
O2095     Cu2098   2.010       .  S
O2096     Cu2098   2.009       .  S
Cu2097     O3051   2.010       .  S
Cu2098     O3054   2.007       .  S
C2099      C2648   1.481       .  S
C2100      C2744   1.434       .  S
C2101      C2638   1.481       .  S
C2102      C2628   1.481       .  S
O2103     Cu2111   2.008       .  S
O2103      C2113   1.276       .  A
O2104     Cu2111   2.006       .  S
O2104      C2114   1.278       .  A
O2105     Cu2111   2.007       .  S
O2105      C2115   1.278       .  A
O2106     Cu2111   2.007       .  S
O2106      C2116   1.278       .  A
O2107     Cu2112   2.009       .  S
O2108     Cu2112   2.010       .  S
O2109     Cu2112   2.010       .  S
O2110     Cu2112   2.011       .  S
C2113      C2712   1.435       .  S
C2114      C2618   1.481       .  S
C2115      C2641   1.481       .  S
C2116      C2631   1.481       .  S
O2117     Cu2125   2.008       .  S
O2117      C2127   1.278       .  A
O2118     Cu2125   2.008       .  S
O2118      C2128   1.276       .  A
O2119     Cu3085   2.008       .  S
O2119      C2129   1.278       .  A
O2120     Cu2125   2.007       .  S
O2120      C2130   1.278       .  A
O2121     Cu2126   2.010       .  S
O2121      C2130   1.279       .  A
O2122     Cu3086   2.009       .  S
O2122      C2129   1.279       .  A
O2123     Cu2126   2.007       .  S
O2123      C2128   1.276       .  A
O2124     Cu2126   2.006       .  S
O2124      C2127   1.278       .  A
Cu2125     O3079   2.008       .  S
Cu2125    Cu2126   2.373       .  S
Cu2126     O3082   2.009       .  S
C2127      C2608   1.480       .  S
C2128      C2699   1.433       .  S
C2129      C2598   1.481       .  S
C2130      C2588   1.481       .  S
O2131     Cu2139   2.009       .  S
O2131      C2141   1.276       .  A
O2132     Cu2139   2.010       .  S
O2132      C2142   1.279       .  A
O2133     Cu2139   2.009       .  S
O2133      C2143   1.278       .  A
O2134     Cu2139   2.008       .  S
O2134      C2144   1.278       .  A
O2135     Cu2140   2.009       .  S
O2135      C2144   1.278       .  A
O2136     Cu2140   2.007       .  S
O2136      C2143   1.278       .  A
O2137     Cu2140   2.006       .  S
O2137      C2142   1.278       .  A
O2138     Cu2140   2.009       .  S
O2138      C2141   1.276       .  A
Cu2139    Cu2140   2.373       .  S
C2141      C2668   1.434       .  S
C2142      C2578   1.481       .  S
C2143      C2601   1.481       .  S
C2144      C2591   1.481       .  S
O2145      C2155   1.278       .  A
O2146     Cu2153   2.008   1_655  S
O2146      C2156   1.278       .  A
O2147     Cu2153   2.010       .  S
O2147      C2157   1.279   1_455  A
O2148     Cu2153   2.011       .  S
O2148      C2158   1.277       .  A
O2149      C3118   1.276       .  A
O2150      C3117   1.278   1_455  A
O2151      C3116   1.278       .  A
O2152     Cu2154   2.008       .  S
O2152      C3115   1.279       .  A
C2155      O3112   1.279       .  A
C2155      C2556   1.481       .  S
C2156      O3111   1.278       .  A
C2156      C2546   1.481       .  S
C2157      O3110   1.278   1_655  A
C2157      C2566   1.481       .  S
C2158      O3109   1.276       .  A
C2158      C3535   1.435       .  S
O2159     Cu2167   2.007       .  S
O2159      C2169   1.278       .  A
O2160     Cu2167   2.008       .  S
O2160      C2170   1.276       .  A
O2161     Cu2167   2.009       .  S
O2161      C2171   1.278       .  A
O2162      C2172   1.278       .  A
O2163      C2172   1.278       .  A
O2164     Cu2168   2.007       .  S
O2164      C2171   1.278       .  A
O2165     Cu2168   2.008       .  S
O2165      C2170   1.276       .  A
O2166     Cu2168   2.007       .  S
O2166      C2169   1.278       .  A
Cu2167    Cu2168   2.373       .  S
C2169      C2537   1.480       .  S
C2170      C2544   1.434       .  S
C2171      C2524   1.481       .  S
C2172      C2514   1.481       .  S
O2173     Cu2181   2.007       .  S
O2173      C3143   1.278       .  A
O2174     Cu2181   2.009       .  S
O2174      C3144   1.276       .  A
O2175     Cu2181   2.009       .  S
O2175      C3145   1.279       .  A
O2176     Cu2181   2.008       .  S
O2176      C3146   1.278       .  A
O2177     Cu2182   2.008       .  S
O2177      C2186   1.278       .  A
O2178     Cu2182   2.007       .  S
O2178      C2185   1.278       .  A
O2179     Cu2182   2.011       .  S
O2179      C2184   1.277       .  A
O2180     Cu2182   2.009       .  S
O2180      C2183   1.279       .  A
Cu2181    Cu3142   2.373   1_545  S
Cu2182    Cu3141   2.373       .  S
C2183      O3133   1.278       .  A
C2183      C2502   1.481       .  S
C2184      O3134   1.276       .  A
C2184      C2511   1.435       .  S
C2185      O3135   1.279       .  A
C2185      C2549   1.481       .  S
C2186      O3136   1.278       .  A
C2186      C2559   1.481       .  S
O2187     Cu2195   2.007       .  S
O2187      C2197   1.278       .  A
O2188     Cu2195   2.008       .  S
O2188      C2198   1.278       .  A
O2189     Cu2195   2.009       .  S
O2189      C2199   1.276       .  A
O2190     Cu2195   2.008       .  S
O2190      C2200   1.278       .  A
O2191     Cu2196   2.010       .  S
O2191      C2200   1.278       .  A
O2192     Cu2196   2.010       .  S
O2192      C2199   1.276       .  A
O2193     Cu2196   2.008       .  S
O2193      C2198   1.279       .  A
O2194     Cu2196   2.009       .  S
O2194      C2197   1.278       .  A
Cu2195    Cu2196   2.373       .  S
C2197      C2517   1.481       .  S
C2198      C2527   1.481       .  S
C2199      C2499   1.435       .  S
C2200      C2490   1.482       .  S
O2201     Cu2209   2.006       .  S
O2201      C3171   1.276       .  A
O2202     Cu2209   2.009       .  S
O2202      C2212   1.277   1_455  A
O2203     Cu2209   2.012   1_655  S
O2203      C3173   1.279       .  A
O2204      C3174   1.278       .  A
O2205      C2214   1.279       .  A
O2206     Cu2210   2.004       .  S
O2206      C2213   1.278       .  A
O2207     Cu2210   2.010       .  S
O2207      C3172   1.278       .  A
O2208     Cu2210   2.012   1_455  S
O2208      C2211   1.277       .  A
Cu2209    Cu3170   2.374   1_455  S
Cu2210    Cu3169   2.374   1_645  S
C2211      O3161   1.276   1_545  A
C2211      C2576   1.435       .  S
C2212      O3167   1.278       .  A
C2212      C2737   1.472       .  S
C2213      O3163   1.279   1_545  A
C2213      C3430   1.481       .  S
C2214      O3164   1.278   1_545  A
C2214      C3440   1.481       .  S
O2215     Cu2223   2.006       .  S
O2215      C2225   1.276       .  A
O2216     Cu2223   2.007       .  S
O2216      C2226   1.277       .  A
O2217     Cu2223   2.013       .  S
O2217      C2227   1.279       .  A
O2218      C2228   1.278       .  A
O2219      C2228   1.279       .  A
O2220     Cu2224   2.005       .  S
O2220      C2227   1.278       .  A
O2221     Cu2224   2.008       .  S
O2221      C2226   1.277       .  A
O2222     Cu2224   2.009       .  S
O2222      C2225   1.276       .  A
Cu2223    Cu2224   2.375       .  S
C2225      C2543   1.434       .  S
C2226      C2705   1.467       .  S
C2227      C2460   1.481       .  S
C2228      C2450   1.480       .  S
O2229     Cu2237   2.010       .  S
O2229      C3199   1.278       .  A
O2230     Cu2237   2.012       .  S
O2230      C2240   1.277       .  A
O2231     Cu2237   2.012       .  S
O2231      C3201   1.279       .  A
O2232     Cu2237   2.005       .  S
O2232      C3202   1.278       .  A
O2233     Cu2238   2.011       .  S
O2233      C2242   1.279       .  A
O2234     Cu2238   2.006       .  S
O2234      C2241   1.278       .  A
O2235     Cu2238   2.007       .  S
O2235      C3200   1.276       .  A
O2236     Cu2238   2.009       .  S
O2236      C2239   1.278       .  A
Cu2237    Cu3198   2.374   1_545  S
Cu2238    Cu3197   2.374       .  S
C2239      O3189   1.278       .  A
C2239      C2693   1.475       .  S
C2240      O3195   1.276   1_545  A
C2240      C2512   1.435       .  S
C2241      O3191   1.279       .  A
C2241      C2483   1.481       .  S
C2242      O3192   1.278       .  A
C2242      C2473   1.481       .  S
O2243     Cu2251   2.005       .  S
O2243      C2253   1.278       .  A
O2244     Cu2251   2.011       .  S
O2244      C2254   1.279       .  A
O2245     Cu2251   2.009       .  S
O2245      C2255   1.278       .  A
O2246     Cu2251   2.010       .  S
O2246      C2256   1.276       .  A
O2247     Cu2252   2.008       .  S
O2247      C2256   1.276       .  A
O2248     Cu2252   2.007       .  S
O2248      C2255   1.277       .  A
O2249     Cu2252   2.004       .  S
O2249      C2254   1.278       .  A
O2250     Cu2252   2.012       .  S
O2250      C2253   1.279       .  A
Cu2251    Cu2252   2.374       .  S
C2253      C2463   1.481       .  S
C2254      C2453   1.480       .  S
C2255      C2661   1.471       .  S
C2256      C2500   1.435       .  S
O2257     Cu2265   2.011       .  S
O2257      C3227   1.277       .  A
O2258     Cu2265   2.013       .  S
O2258      C3228   1.279       .  A
O2259     Cu2265   2.008       .  S
O2259      C3229   1.278       .  A
O2260      C3230   1.278       .  A
O2261      C2270   1.278       .  A
O2262     Cu2266   2.008       .  S
O2262      C2269   1.278       .  A
O2263     Cu2266   2.005       .  S
O2263      C2268   1.278       .  A
O2264     Cu2266   2.006       .  S
O2264      C2267   1.276       .  A
Cu2265    Cu3226   2.373   1_545  S
Cu2266    Cu3225   2.373       .  S
C2267      O3217   1.277       .  A
C2267      C2792   1.434       .  S
C2268      O3218   1.279       .  A
C2268      C2569   1.481       .  S
C2269      O3219   1.278       .  A
C2269      C2440   1.481       .  S
C2270      O3220   1.278       .  A
C2270      C2430   1.481       .  S
O2271     Cu2279   2.011       .  S
O2271      C2281   1.276       .  A
O2272     Cu2279   2.010       .  S
O2272      C2282   1.278       .  A
O2273      C2283   1.279       .  A
O2274     Cu2279   2.008       .  S
O2274      C2284   1.278       .  A
O2275     Cu2280   2.008       .  S
O2275      C2284   1.278       .  A
O2276      C2283   1.278       .  A
O2277     Cu2280   2.008       .  S
O2277      C2282   1.278       .  A
O2278     Cu2280   2.009       .  S
O2278      C2281   1.276       .  A
Cu2279    Cu2280   2.373       .  S
C2281      C2769   1.436       .  S
C2282      C2534   1.481       .  S
C2283      C2410   1.481       .  S
C2284      C2420   1.481       .  S
O2285     Cu2293   2.006       .  S
O2285      C2295   1.276       .  A
O2286     Cu2293   2.004       .  S
O2286      C2296   1.278       .  A
O2287     Cu2293   2.008       .  S
O2287      C2297   1.279       .  A
O2288     Cu2293   2.008       .  S
O2288      C2298   1.278       .  A
O2289     Cu2294   2.008       .  S
O2289      C3258   1.278       .  A
O2290     Cu2294   2.008       .  S
O2290      C3257   1.278       .  A
O2291     Cu2294   2.014       .  S
O2291      C3256   1.279       .  A
O2292     Cu2294   2.012       .  S
O2292      C3255   1.277       .  A
Cu2293    Cu3254   2.373       .  S
Cu2294    Cu3253   2.373   1_545  S
C2295      O3252   1.277       .  A
C2295      C2747   1.434       .  S
C2296      O3251   1.279       .  A
C2296      C2505   1.481       .  S
C2297      O3250   1.278       .  A
C2297      C2443   1.481       .  S
C2298      O3249   1.278       .  A
C2298      C2433   1.481       .  S
O2299     Cu2307   2.011       .  S
O2299      C2309   1.278       .  A
O2300     Cu2307   2.011       .  S
O2300      C2310   1.276       .  A
O2301     Cu2307   2.007       .  S
O2301      C2311   1.278       .  A
O2302     Cu2307   2.008       .  S
O2302      C2312   1.278       .  A
O2303     Cu2308   2.008       .  S
O2303      C2312   1.278       .  A
O2304     Cu2308   2.009       .  S
O2304      C2311   1.278       .  A
O2305     Cu2308   2.009       .  S
O2305      C2310   1.276       .  A
O2306     Cu2308   2.009       .  S
O2306      C2309   1.278       .  A
Cu2307    Cu2308   2.373       .  S
C2309      C2493   1.482       .  S
C2310      C2746   1.435       .  S
C2311      C2413   1.481       .  S
C2312      C2423   1.481       .  S
O2313     Cu2321   2.007       .  S
O2313      C2323   1.278       .  A
O2314     Cu2321   2.007       .  S
O2314      C2324   1.276       .  A
O2315     Cu2321   2.008       .  S
O2315      C2325   1.278       .  A
O2316     Cu3281   2.009   1_545  S
O2316      C2326   1.278       .  A
O2317     Cu3282   2.008   1_545  S
O2318     Cu2322   2.008       .  S
O2319     Cu2322   2.011       .  S
O2320     Cu2322   2.011       .  S
Cu2321     O3276   2.009       .  S
Cu2322     O3277   2.008       .  S
C2323      C2651   1.481       .  S
C2324      C2879   1.435       .  S
C2325      C2390   1.481       .  S
C2326      C2400   1.481       .  S
O2327     Cu2335   2.008       .  S
O2327      C2337   1.278       .  A
O2328     Cu2335   2.007       .  S
O2328      C2338   1.276       .  A
O2329     Cu2335   2.008       .  S
O2329      C2339   1.278       .  A
O2330     Cu2335   2.009       .  S
O2330      C2340   1.278       .  A
O2331     Cu2336   2.008       .  S
O2332     Cu2336   2.009       .  S
O2333     Cu2336   2.010       .  S
O2334     Cu2336   2.010       .  S
C2337      C2621   1.481       .  S
C2339      C2403   1.481       .  S
C2340      C2393   1.481       .  S
O2341     Cu2349   2.010       .  S
O2341      C2351   1.276       .  A
O2342     Cu2349   2.007       .  S
O2342      C2352   1.278       .  A
O2343     Cu3309   2.008   1_545  S
O2343      C2353   1.278       .  A
O2344     Cu2349   2.009       .  S
O2344      C2354   1.278       .  A
O2345     Cu2350   2.008       .  S
O2345      C2354   1.278       .  A
O2346     Cu3310   2.008   1_545  S
O2346      C2353   1.278       .  A
O2347     Cu2350   2.009       .  S
O2347      C2352   1.278       .  A
O2348     Cu2350   2.009       .  S
O2348      C2351   1.276       .  A
Cu2349     O3303   2.008       .  S
Cu2349    Cu2350   2.373       .  S
Cu2350     O3306   2.008       .  S
C2351      C2835   1.435       .  S
C2352      C2611   1.481       .  S
C2353      C2380   1.481       .  S
C2354      C2370   1.481       .  S
O2355     Cu2363   2.008       .  S
O2355      C2365   1.278       .  A
O2356     Cu2363   2.009       .  S
O2356      C2366   1.276       .  A
O2357     Cu2363   2.008       .  S
O2357      C2367   1.278       .  A
O2358     Cu2363   2.008       .  S
O2358      C2368   1.278       .  A
O2359     Cu2364   2.009       .  S
O2359      C2368   1.278       .  A
O2360     Cu2364   2.008       .  S
O2360      C2367   1.278       .  A
O2361     Cu2364   2.008       .  S
O2361      C2366   1.276       .  A
O2362     Cu2364   2.009       .  S
O2362      C2365   1.278       .  A
Cu2363    Cu2364   2.373       .  S
C2365      C2581   1.481       .  S
C2366      C2804   1.435       .  S
C2367      C2383   1.481       .  S
C2368      C2373   1.481       .  S
C2369      C2370   1.406       .  A
C2369      C2374   1.398       .  A
C2369      H2375   1.083       .  S
C2370      C2371   1.406       .  A
C2371      C2372   1.398       .  A
C2371      H2376   1.083       .  S
C2372      C2373   1.406       .  A
C2372      H2377   1.083       .  S
C2373      C2374   1.405       .  A
C2374      H2378   1.083       .  S
C2379      C2380   1.406       .  A
C2379      C2384   1.398       .  A
C2379      H2385   1.083       .  S
C2380      C2381   1.406       .  A
C2381      C2382   1.398       .  A
C2381      H2386   1.083       .  S
C2382      C2383   1.406       .  A
C2382      H2387   1.083       .  S
C2383      C2384   1.406       .  A
C2384      H2388   1.083       .  S
C2389      C2390   1.406       .  A
C2389      C2394   1.398       .  A
C2389      H2395   1.083       .  S
C2391      C2392   1.398       .  A
C2391      H2396   1.083       .  S
C2392      H2397   1.083       .  S
C2393      C2394   1.406       .  A
C2394      H2398   1.083       .  S
C2399      C2400   1.405       .  A
C2399      C2404   1.398       .  A
C2399      H2405   1.083       .  S
C2401      C2402   1.398       .  A
C2401      H2406   1.083       .  S
C2402      H2407   1.083       .  S
C2403      C2404   1.406       .  A
C2404      H2408   1.083       .  S
C2409      C2410   1.405       .  A
C2409      C2414   1.397       .  A
C2409      H2415   1.083       .  S
C2410      C2411   1.406       .  A
C2411      C2412   1.398       .  A
C2411      H2416   1.083       .  S
C2412      C2413   1.406       .  A
C2412      H2417   1.083       .  S
C2413      C2414   1.405       .  A
C2414      H2418   1.083       .  S
C2419      C2420   1.406       .  A
C2419      C2424   1.398       .  A
C2419      H2425   1.083       .  S
C2420      C2421   1.405       .  A
C2421      C2422   1.397       .  A
C2421      H2426   1.083       .  S
C2422      C2423   1.405       .  A
C2422      H2427   1.083       .  S
C2423      C2424   1.406       .  A
C2424      H2428   1.083       .  S
C2429      C3390   1.405       .  A
C2429      C2434   1.397       .  A
C2429      H2435   1.083       .  S
C2430      C3389   1.405       .  A
C2430      C2431   1.406       .  A
C2431      C2432   1.398       .  A
C2431      H2436   1.083       .  S
C2432      C2433   1.406       .  A
C2432      H2437   1.083       .  S
C2433      C3394   1.405       .  A
C2434      C3393   1.405       .  A
C2434      H2438   1.083       .  S
C2439      C2440   1.405       .  A
C2439      C2444   1.397       .  A
C2439      H2445   1.083       .  S
C2440      C3401   1.406       .  A
C2441      C3400   1.406       .  A
C2441      C2442   1.398       .  A
C2441      H2446   1.083       .  S
C2442      C3403   1.406       .  A
C2442      H2447   1.083       .  S
C2443      C3402   1.406       .  A
C2443      C2444   1.405       .  A
C2444      H2448   1.083       .  S
C2449      C2450   1.406       .  A
C2449      C2454   1.398       .  A
C2449      H2455   1.083       .  S
C2450      C2451   1.405       .  A
C2451      C2452   1.397       .  A
C2451      H2456   1.083       .  S
C2452      C2453   1.405       .  A
C2452      H2457   1.083       .  S
C2453      C2454   1.406       .  A
C2454      H2458   1.083       .  S
C2459      C2460   1.406       .  A
C2459      C2464   1.397       .  A
C2459      H2465   1.083       .  S
C2460      C2461   1.405       .  A
C2461      C2462   1.398       .  A
C2461      H2466   1.083       .  S
C2462      C2463   1.406       .  A
C2462      H2467   1.083       .  S
C2463      C2464   1.406       .  A
C2464      H2468   1.083       .  S
C2469      C3430   1.406       .  A
C2469      C2474   1.397       .  A
C2469      H2475   1.083       .  S
C2470      C3173   1.481       .  S
C2470      C3429   1.406       .  A
C2470      C2471   1.405       .  A
C2471      C2472   1.398       .  A
C2471      H2476   1.083       .  S
C2472      C2473   1.406       .  A
C2472      H2477   1.083       .  S
C2473      C3434   1.405       .  A
C2474      C3433   1.405       .  A
C2474      H2478   1.083       .  S
C2479      C2480   1.405       .  A
C2479      C2484   1.397       .  A
C2479      H2485   1.083       .  S
C2480      C3174   1.481       .  S
C2480      C3441   1.406       .  A
C2481      C3440   1.406       .  A
C2481      C2482   1.399       .  A
C2481      H2486   1.083       .  S
C2482      C3443   1.406       .  A
C2482      H2487   1.083       .  S
C2483      C3442   1.406       .  A
C2483      C2484   1.405       .  A
C2484      H2488   1.083       .  S
C2489      C2490   1.406       .  A
C2489      C2494   1.398   1_554  A
C2489      H2495   1.083       .  S
C2490      C2491   1.406       .  A
C2491      C2492   1.399   1_554  A
C2491      H2496   1.083       .  S
C2492      C2493   1.406       .  A
C2492      H2497   1.083       .  S
C2493      C2494   1.406       .  A
C2494      H2498   1.083       .  S
C2499      C2500   1.206       .  T
C2501      C2502   1.405       .  A
C2501      C2506   1.397   1_554  A
C2501      H2507   1.083       .  S
C2502      C3463   1.406       .  A
C2503      C3462   1.406       .  A
C2503      C2504   1.399   1_554  A
C2503      H2508   1.083       .  S
C2504      C3465   1.405       .  A
C2504      H2509   1.083       .  S
C2505      C3464   1.405       .  A
C2505      C2506   1.406       .  A
C2506      H2510   1.083       .  S
C2511      C3472   1.206       .  T
C2512      C3471   1.206       .  T
C2513      C2514   1.405       .  A
C2513      C2518   1.397       .  A
C2513      H2519   1.083       .  S
C2514      C2515   1.406       .  A
C2515      C2516   1.399       .  A
C2515      H2520   1.083       .  S
C2516      C2517   1.406       .  A
C2516      H2521   1.083       .  S
C2517      C2518   1.405       .  A
C2518      H2522   1.083       .  S
C2523      C2524   1.406       .  A
C2523      C2528   1.399       .  A
C2523      H2529   1.083       .  S
C2524      C2525   1.405       .  A
C2525      C2526   1.397       .  A
C2525      H2530   1.083       .  S
C2526      C2527   1.405       .  A
C2526      H2531   1.083       .  S
C2527      C2528   1.406       .  A
C2528      H2532   1.083       .  S
C2533      C2534   1.406       .  A
C2533      C2538   1.397   1_556  A
C2533      H2539   1.083       .  S
C2535      C2536   1.398   1_556  A
C2535      H2540   1.083       .  S
C2536      H2541   1.083       .  S
C2537      C2538   1.405       .  A
C2538      H2542   1.083       .  S
C2543      C2544   1.205       .  T
C2545      C2546   1.406       .  A
C2545      C2550   1.397       .  A
C2545      H2551   1.083       .  S
C2546      C3507   1.406       .  A
C2547      C3506   1.406       .  A
C2547      C2548   1.398       .  A
C2547      H2552   1.083       .  S
C2548      C3509   1.406       .  A
C2548      H2553   1.083       .  S
C2549      C3508   1.406       .  A
C2549      C2550   1.406       .  A
C2550      H2554   1.083       .  S
C2555      C3516   1.405       .  A
C2555      C2560   1.397       .  A
C2555      H2561   1.083       .  S
C2556      C3515   1.405       .  A
C2556      C2557   1.406       .  A
C2557      C2558   1.398       .  A
C2557      H2562   1.083       .  S
C2558      C2559   1.406       .  A
C2558      H2563   1.083       .  S
C2559      C3520   1.405       .  A
C2560      C3519   1.405       .  A
C2560      H2564   1.083       .  S
C2565      C2570   1.398   1_554  A
C2565      H2571   1.083       .  S
C2566      C2567   1.405   1_655  A
C2567      C2568   1.397   1_554  A
C2567      H2572   1.083       .  S
C2568      H2573   1.083       .  S
C2569      C3530   1.405       .  A
C2570      C3529   1.405       .  A
C2570      H2574   1.083       .  S
C2575      C3118   1.435       .  S
C2575      C2576   1.206       .  T
C2577      C2578   1.405       .  A
C2577      C2582   1.398       .  A
C2577      H2583   1.083       .  S
C2578      C2579   1.406       .  A
C2579      C2580   1.397       .  A
C2579      H2584   1.083       .  S
C2580      C2581   1.405       .  A
C2580      H2585   1.083       .  S
C2581      C2582   1.406       .  A
C2582      H2586   1.083       .  S
C2587      C2588   1.405       .  A
C2587      C2592   1.397       .  A
C2587      H2593   1.083       .  S
C2588      C2589   1.406       .  A
C2589      C2590   1.398       .  A
C2589      H2594   1.083       .  S
C2590      C2591   1.406       .  A
C2590      H2595   1.083       .  S
C2591      C2592   1.405       .  A
C2592      H2596   1.083       .  S
C2597      C2598   1.406       .  A
C2597      C2602   1.398       .  A
C2597      H2603   1.083       .  S
C2598      C2599   1.405       .  A
C2599      C2600   1.397       .  A
C2599      H2604   1.083       .  S
C2600      C2601   1.405       .  A
C2600      H2605   1.083       .  S
C2601      C2602   1.406       .  A
C2602      H2606   1.083       .  S
C2607      C3568   1.406       .  A
C2607      C2612   1.398       .  A
C2607      H2613   1.083   1_545  S
C2608      C3567   1.406       .  A
C2608      C2609   1.405       .  A
C2609      C2610   1.397       .  A
C2609      H2614   1.083       .  S
C2610      C2611   1.405       .  A
C2610      H2615   1.083       .  S
C2611      C3572   1.406       .  A
C2612      C3571   1.406       .  A
C2612      H2616   1.083   1_545  S
C2617      C2622   1.399       .  A
C2617      H2623   1.083       .  S
C2618      C2619   1.405       .  A
C2619      C2620   1.397       .  A
C2619      H2624   1.083       .  S
C2620      C2621   1.405       .  A
C2620      H2625   1.083       .  S
C2622      H2626   1.083       .  S
C2627      C2628   1.405       .  A
C2627      C2632   1.398       .  A
C2627      H2633   1.083       .  S
C2629      C2630   1.398       .  A
C2629      H2634   1.083       .  S
C2630      H2635   1.083       .  S
C2631      C2632   1.406       .  A
C2632      H2636   1.083       .  S
C2637      C2638   1.405       .  A
C2637      C2642   1.398       .  A
C2637      H2643   1.083       .  S
C2639      C2640   1.398       .  A
C2639      H2644   1.083       .  S
C2640      H2645   1.083       .  S
C2641      C2642   1.406       .  A
C2642      H2646   1.083       .  S
C2647      C3608   1.405   1_565  A
C2647      C2652   1.397       .  A
C2647      H2653   1.083       .  S
C2648      C3607   1.405       .  A
C2649      C2650   1.398       .  A
C2649      H2654   1.083       .  S
C2650      H2655   1.083       .  S
C2651      C3612   1.406       .  A
C2652      C3611   1.406   1_565  A
C2652      H2656   1.083       .  S
C2657      C2658   1.403       .  A
C2657      C2662   1.398       .  A
C2657      H2663   1.083       .  S
C2658      C2659   1.403       .  A
C2659      C2660   1.398       .  A
C2659      H2664   1.083       .  S
C2660      C2661   1.403       .  A
C2660      H2665   1.083       .  S
C2661      C2662   1.404       .  A
C2662      H2666   1.083       .  S
C2667      C2668   1.205       .  T
C2669      C2670   1.406       .  A
C2669      C2674   1.397       .  A
C2669      H2675   1.083       .  S
C2670      C2671   1.405       .  A
C2671      C2672   1.398       .  A
C2671      H2676   1.083       .  S
C2672      C2673   1.406       .  A
C2672      H2677   1.083       .  S
C2673      C2674   1.405       .  A
C2674      H2678   1.083       .  S
C2679      C2680   1.406       .  A
C2679      C2684   1.397       .  A
C2679      H2685   1.083       .  S
C2680      C2681   1.405       .  A
C2681      C2682   1.398       .  A
C2681      H2686   1.083       .  S
C2682      C2683   1.406       .  A
C2682      H2687   1.083       .  S
C2683      C2684   1.405       .  A
C2684      H2688   1.083       .  S
C2689      C2690   1.402       .  A
C2689      C2694   1.398       .  A
C2689      H2695   1.083       .  S
C2690      C3651   1.402       .  A
C2691      C3650   1.402       .  A
C2691      C2692   1.398       .  A
C2691      H2696   1.084       .  S
C2692      C3653   1.405       .  A
C2692      H2697   1.083       .  S
C2693      C3652   1.405       .  A
C2693      C2694   1.405       .  A
C2694      H2698   1.083       .  S
C2699      C2700   1.205       .  T
C2701      C2706   1.399       .  A
C2701      H2707   1.083       .  S
C2702      C2703   1.405       .  A
C2703      C2704   1.398       .  A
C2703      H2708   1.083       .  S
C2704      C2705   1.401       .  A
C2704      H2709   1.084       .  S
C2706      H2710   1.083       .  S
C2711      C2712   1.206       .  T
C2713      C2718   1.398       .  A
C2713      H2719   1.083       .  S
C2714      C2715   1.406       .  A
C2715      C2716   1.398       .  A
C2715      H2720   1.083       .  S
C2716      C2717   1.405       .  A
C2716      H2721   1.083       .  S
C2718      H2722   1.083       .  S
C2723      C2728   1.398       .  A
C2723      H2729   1.083       .  S
C2724      C2725   1.405       .  A
C2725      C2726   1.398       .  A
C2725      H2730   1.083       .  S
C2726      C2727   1.406       .  A
C2726      H2731   1.083       .  S
C2728      H2732   1.083       .  S
C2733      C2738   1.398       .  A
C2733      H2739   1.083       .  S
C2734      C3695   1.403       .  A
C2735      C3694   1.403       .  A
C2735      C2736   1.398       .  A
C2735      H2740   1.083       .  S
C2736      C3697   1.404       .  A
C2736      H2741   1.083       .  S
C2737      C3696   1.404       .  A
C2738      H2742   1.083       .  S
C2743      C2744   1.205       .  T
C2745      C2746   1.206       .  T
C2747      C2748   1.205       .  T
C2749      C2750   1.406       .  A
C2749      C2754   1.397       .  A
C2749      H2755   1.083       .  S
C2750      C2751   1.405       .  A
C2751      C2752   1.398       .  A
C2751      H2756   1.083       .  S
C2752      C2753   1.406       .  A
C2752      H2757   1.083       .  S
C2753      C2754   1.405       .  A
C2754      H2758   1.083       .  S
C2759      C2760   1.406       .  A
C2759      C2764   1.397       .  A
C2759      H2765   1.083       .  S
C2760      C2761   1.405       .  A
C2761      C2762   1.398       .  A
C2761      H2766   1.083       .  S
C2762      C2763   1.406       .  A
C2762      H2767   1.083       .  S
C2763      C2764   1.405       .  A
C2764      H2768   1.083       .  S
C2769      C2770   1.206       .  T
C2771      C3732   1.407       .  A
C2771      C2776   1.401       .  A
C2771      H2777   1.083       .  S
C2772      C3731   1.407       .  A
C2772      C2773   1.405       .  A
C2773      C2774   1.395       .  A
C2773      H2778   1.083       .  S
C2774      C2775   1.405       .  A
C2774      H2779   1.083       .  S
C2775      C3736   1.407       .  A
C2776      C3735   1.407       .  A
C2776      H2780   1.083       .  S
C2781      C2782   1.407       .  A
C2781      C2786   1.401       .  A
C2781      H2787   1.083       .  S
C2782      C3743   1.405       .  A
C2783      C3742   1.405       .  A
C2783      C2784   1.395       .  A
C2783      H2788   1.083       .  S
C2784      C3745   1.405       .  A
C2784      H2789   1.083       .  S
C2785      C3744   1.405       .  A
C2785      C2786   1.407       .  A
C2786      H2790   1.083       .  S
C2791      C2792   1.205       .  T
C2793      C2794   1.404       .  A
C2793      C2798   1.399       .  A
C2793      H2799   1.083       .  S
C2794      C2795   1.404       .  A
C2795      C2796   1.398       .  A
C2795      H2800   1.083       .  S
C2796      C2797   1.403       .  A
C2796      H2801   1.083       .  S
C2797      C2798   1.403       .  A
C2798      H2802   1.083       .  S
C2803      C2804   1.206       .  T
C2805      C2806   1.406       .  A
C2805      C2810   1.398       .  A
C2805      H2811   1.083       .  S
C2806      C2807   1.405       .  A
C2807      C2808   1.398       .  A
C2807      H2812   1.083       .  S
C2808      C2809   1.406       .  A
C2808      H2813   1.083       .  S
C2809      C2810   1.406       .  A
C2810      H2814   1.083       .  S
C2815      C2816   1.406       .  A
C2815      C2820   1.397       .  A
C2815      H2821   1.083       .  S
C2816      C2817   1.405       .  A
C2817      C2818   1.398       .  A
C2817      H2822   1.083       .  S
C2818      C2819   1.406       .  A
C2818      H2823   1.083       .  S
C2819      C2820   1.405       .  A
C2820      H2824   1.083       .  S
C2825      C2826   1.403       .  A
C2825      C2830   1.398       .  A
C2825      H2831   1.083       .  S
C2826      C3787   1.403       .  A
C2827      C3786   1.403       .  A
C2827      C2828   1.399       .  A
C2827      H2832   1.083       .  S
C2828      C3789   1.404       .  A
C2828      H2833   1.083       .  S
C2829      C3788   1.404       .  A
C2829      C2830   1.404       .  A
C2830      H2834   1.083       .  S
C2835      C2836   1.206       .  T
C2837      C2838   1.405       .  A
C2837      C2842   1.399       .  A
C2837      H2843   1.083       .  S
C2839      C2840   1.399       .  A
C2839      H2844   1.083       .  S
C2840      C2841   1.402       .  A
C2840      H2845   1.083       .  S
C2842      H2846   1.083       .  S
C2847      C2848   1.206       .  T
C2849      C2854   1.400       .  A
C2849      H2855   1.083       .  S
C2850      C2851   1.405       .  A
C2851      C2852   1.396       .  A
C2851      H2856   1.083       .  S
C2852      C2853   1.405       .  A
C2852      H2857   1.083       .  S
C2854      H2858   1.083       .  S
C2859      C2860   1.406       .  A
C2859      C2864   1.400       .  A
C2859      H2865   1.083       .  S
C2861      C2862   1.395       .  A
C2861      H2866   1.083       .  S
C2862      H2867   1.083       .  S
C2863      C2864   1.406       .  A
C2864      H2868   1.083       .  S
C2869      C2874   1.398       .  A
C2869      H2875   1.083       .  S
C2870      C2871   1.405       .  A
C2871      C2872   1.398       .  A
C2871      H2876   1.083       .  S
C2872      C2873   1.402       .  A
C2872      H2877   1.083       .  S
C2874      H2878   1.083       .  S
C2879      C2880   1.206       .  T
C2880      C2891   1.435       .  S
O2881     Cu2889   2.009       .  S
O2882     Cu2889   2.009       .  S
O2883     Cu2889   2.013       .  S
O2885     Cu2890   2.013   1_565  S
O2885      C2894   1.279       .  A
O2886      C2893   1.278       .  A
O2887     Cu2890   2.008       .  S
O2888     Cu2890   2.011   1_565  S
C2892      C3830   1.476       .  S
O2895     Cu2903   2.009       .  S
O2895      C2905   1.278       .  A
O2896     Cu2903   2.009       .  S
O2896      C2906   1.276       .  A
O2897     Cu2903   2.013       .  S
O2897      C2907   1.279       .  A
O2898     Cu2903   2.005       .  S
O2898      C2908   1.278       .  A
O2899     Cu2904   2.013       .  S
O2900     Cu2904   2.005       .  S
O2901     Cu2904   2.010       .  S
O2902     Cu2904   2.009       .  S
C2905      C3798   1.476       .  S
C2906      C3808   1.435       .  S
C2907      C3823   1.481       .  S
C2908      C3813   1.481       .  S
O2909     Cu2917   2.010   1_565  S
O2909      C2919   1.276       .  A
O2910     Cu2917   2.011       .  S
O2910      C2920   1.278       .  A
O2911      C2921   1.278       .  A
O2912     Cu2917   2.013   1_565  S
O2912      C2922   1.279       .  A
O2913     Cu2918   2.005       .  S
O2913      C2922   1.278       .  A
O2914      C2921   1.279       .  A
O2915     Cu2918   2.009       .  S
O2915      C2920   1.278   1_565  A
O2916     Cu2918   2.010       .  S
O2916      C2919   1.276       .  A
Cu2917    Cu2918   2.374   1_545  S
C2919      C3796   1.435       .  S
C2920      C3786   1.471       .  S
C2921      C3776   1.480       .  S
C2922      C3769   1.482       .  S
O2923     Cu2931   2.004       .  S
O2923      C2933   1.278       .  A
O2924     Cu2931   2.012       .  S
O2924      C2934   1.279       .  A
O2925     Cu2931   2.008       .  S
O2925      C2935   1.278       .  A
O2926     Cu2931   2.009       .  S
O2926      C2936   1.276       .  A
O2927     Cu2932   2.010       .  S
O2927      C2936   1.276       .  A
O2928     Cu2932   2.010       .  S
O2928      C2935   1.278       .  A
O2929     Cu2932   2.006       .  S
O2929      C2934   1.278       .  A
O2930     Cu2932   2.011       .  S
O2930      C2933   1.279       .  A
Cu2931    Cu2932   2.374       .  S
C2933      C3779   1.480       .  S
C2934      C3766   1.482       .  S
C2935      C3754   1.472       .  S
C2936      C3763   1.435       .  S
O2938     Cu2945   2.003       .  S
O2939     Cu2945   2.009       .  S
O2941     Cu2946   2.010   1_455  S
O2943      C2948   1.279   1_565  A
O2944     Cu2946   2.004       .  S
O2944      C2947   1.278   1_565  A
C2947      C3732   1.481       .  S
C2948      C3742   1.481       .  S
C2949      C3833   1.467       .  S
C2950      C3751   1.434       .  S
O2951      C2961   1.278       .  A
O2952     Cu2959   2.013       .  S
O2952      C2962   1.279       .  A
O2953     Cu2959   2.011       .  S
O2953      C2963   1.277       .  A
O2954     Cu2959   2.010       .  S
O2954      C2964   1.276       .  A
O2955     Cu2960   2.012       .  S
O2955      C2964   1.276       .  A
O2956     Cu2960   2.010       .  S
O2956      C2963   1.277       .  A
O2957     Cu2960   2.004       .  S
O2957      C2962   1.278       .  A
O2958      C2961   1.279       .  A
Cu2959    Cu2960   2.374       .  S
C2961      C3710   1.481       .  S
C2962      C3720   1.481       .  S
C2963      C3801   1.468       .  S
C2964      C3730   1.436       .  S
O2965     Cu2973   2.010       .  S
O2966     Cu2973   2.008       .  S
O2967     Cu2973   2.015       .  S
O2968     Cu2973   2.004       .  S
O2969     Cu2974   2.014       .  S
O2969      C2978   1.279   1_565  A
O2970     Cu2974   2.003       .  S
O2970      C2977   1.278   1_565  A
O2971     Cu2974   2.011       .  S
O2971      C2976   1.276   1_565  A
O2972     Cu2974   2.010       .  S
O2972      C2975   1.278   1_565  A
C2975      C3789   1.473       .  S
C2976      C3708   1.435       .  S
C2977      C3735   1.481       .  S
C2978      C3745   1.481       .  S
O2979     Cu2987   2.004       .  S
O2979      C2989   1.278       .  A
O2980     Cu2987   2.011       .  S
O2980      C2990   1.279       .  A
O2981     Cu2987   2.010       .  S
O2981      C2991   1.278       .  A
O2982     Cu2987   2.009       .  S
O2982      C2992   1.276       .  A
O2983     Cu2988   2.011       .  S
O2983      C2992   1.276       .  A
O2984     Cu2988   2.009       .  S
O2984      C2991   1.277       .  A
O2985     Cu2988   2.005       .  S
O2985      C2990   1.278       .  A
O2986     Cu2988   2.013       .  S
O2986      C2989   1.279       .  A
Cu2987    Cu2988   2.374       .  S
C2989      C3723   1.481       .  S
C2990      C3713   1.480       .  S
C2991      C3757   1.470       .  S
C2992      C3705   1.435       .  S
O2993     Cu3001   2.009       .  S
O2993      C3003   1.277       .  A
O2994     Cu3001   2.008   1_565  S
O2995      C3005   1.278       .  A
O2996     Cu3001   2.013   1_565  S
O2996      C3006   1.279       .  A
O2997     Cu3002   2.004   1_565  S
O2999     Cu3002   2.009       .  S
O2999      C3004   1.276   1_545  A
O3000     Cu3002   2.008   1_565  S
C3003      C3694   1.470       .  S
C3004      C3703   1.434       .  S
O3007     Cu3015   2.006       .  S
O3007      C3017   1.278       .  A
O3008     Cu3015   2.012       .  S
O3008      C3018   1.279       .  A
O3009     Cu3015   2.009       .  S
O3009      C3019   1.276       .  A
O3010     Cu3015   2.008       .  S
O3010      C3020   1.278       .  A
O3011     Cu3016   2.009       .  S
O3012     Cu3016   2.009       .  S
O3013     Cu3016   2.005       .  S
O3014     Cu3016   2.011       .  S
C3017      C3687   1.481       .  S
C3018      C3677   1.481       .  S
C3019      C3671   1.435       .  S
C3020      C3662   1.475       .  S
O3021      C3031   1.278       .  A
O3022     Cu3029   2.013   1_565  S
O3022      C3032   1.279       .  A
O3023     Cu3029   2.007       .  S
O3023      C3033   1.277       .  A
O3024     Cu3029   2.008   1_565  S
O3024      C3034   1.276       .  A
O3025     Cu3030   2.008       .  S
O3025      C3034   1.276   1_545  A
O3026     Cu3030   2.008   1_565  S
O3026      C3033   1.277   1_565  A
O3027     Cu3030   2.004   1_565  S
O3027      C3032   1.278       .  A
O3028      C3031   1.279       .  A
Cu3029    Cu3030   2.374       .  S
C3031      C3640   1.481       .  S
C3032      C3630   1.481       .  S
C3033      C3650   1.467       .  S
C3034      C3660   1.434       .  S
O3035     Cu3043   2.006       .  S
O3035      C3045   1.277       .  A
O3036     Cu3043   2.008       .  S
O3036      C3046   1.276       .  A
O3037     Cu3043   2.012       .  S
O3037      C3047   1.279       .  A
O3038     Cu3043   2.005       .  S
O3038      C3048   1.278       .  A
O3039     Cu3044   2.012       .  S
O3039      C3048   1.279       .  A
O3040     Cu3044   2.005       .  S
O3040      C3047   1.278       .  A
O3041     Cu3044   2.009       .  S
O3041      C3046   1.276       .  A
O3042     Cu3044   2.008       .  S
O3042      C3045   1.277       .  A
Cu3043    Cu3044   2.374       .  S
C3045      C3618   1.468       .  S
C3046      C3627   1.434       .  S
C3047      C3633   1.481       .  S
C3048      C3643   1.481       .  S
O3049     Cu3057   2.006       .  S
O3049      C3059   1.278       .  A
O3050     Cu3057   2.008   1_565  S
O3050      C3060   1.276       .  A
O3051      C3061   1.279       .  A
O3052     Cu3057   2.009   1_565  S
O3052      C3062   1.279       .  A
O3053     Cu3058   2.007   1_565  S
O3055     Cu3058   2.010   1_565  S
O3056     Cu3058   2.009       .  S
C3059      C3608   1.481       .  S
C3060      C3704   1.434       .  S
C3061      C3598   1.481       .  S
C3062      C3588   1.481       .  S
O3063     Cu3071   2.008       .  S
O3063      C3073   1.276       .  A
O3064     Cu3071   2.006       .  S
O3064      C3074   1.278       .  A
O3065     Cu3071   2.007       .  S
O3065      C3075   1.278       .  A
O3066     Cu3071   2.007       .  S
O3066      C3076   1.278       .  A
O3067     Cu3072   2.009       .  S
O3068     Cu3072   2.010       .  S
O3069     Cu3072   2.010       .  S
O3070     Cu3072   2.011       .  S
C3073      C3672   1.435       .  S
C3074      C3578   1.481       .  S
C3075      C3601   1.481       .  S
C3076      C3591   1.481       .  S
O3077     Cu3085   2.008       .  S
O3077      C3087   1.278       .  A
O3078     Cu3085   2.008   1_565  S
O3078      C3088   1.276       .  A
O3079      C3089   1.278       .  A
O3080     Cu3085   2.007   1_565  S
O3080      C3090   1.278       .  A
O3081     Cu3086   2.010   1_565  S
O3081      C3090   1.279       .  A
O3082      C3089   1.279       .  A
O3083     Cu3086   2.007       .  S
O3083      C3088   1.276   1_545  A
O3084     Cu3086   2.006       .  S
O3084      C3087   1.278       .  A
Cu3085    Cu3086   2.373       .  S
C3087      C3568   1.480       .  S
C3088      C3659   1.433       .  S
C3089      C3558   1.481       .  S
C3090      C3548   1.481       .  S
O3091     Cu3099   2.009       .  S
O3091      C3101   1.276       .  A
O3092     Cu3099   2.010       .  S
O3092      C3102   1.279       .  A
O3093     Cu3099   2.009       .  S
O3093      C3103   1.278       .  A
O3094     Cu3099   2.008       .  S
O3094      C3104   1.278       .  A
O3095     Cu3100   2.009       .  S
O3095      C3104   1.278       .  A
O3096     Cu3100   2.007       .  S
O3096      C3103   1.278       .  A
O3097     Cu3100   2.006       .  S
O3097      C3102   1.278       .  A
O3098     Cu3100   2.009       .  S
O3098      C3101   1.276       .  A
Cu3099    Cu3100   2.373       .  S
C3101      C3628   1.434       .  S
C3102      C3538   1.481       .  S
C3103      C3561   1.481       .  S
C3104      C3551   1.481       .  S
O3105      C3115   1.278   1_565  A
O3106     Cu3113   2.008   1_655  S
O3106      C3116   1.278   1_565  A
O3107     Cu3113   2.010   1_655  S
O3107      C3117   1.279   1_565  A
O3108     Cu3113   2.011       .  S
O3108      C3118   1.277   1_565  A
O3112     Cu3114   2.008       .  S
C3115      C3516   1.481       .  S
C3116      C3506   1.481       .  S
C3117      C3526   1.481       .  S
O3119     Cu3127   2.008       .  S
O3119      C3129   1.278       .  A
O3120     Cu3127   2.008       .  S
O3120      C3130   1.276       .  A
O3121     Cu3127   2.009       .  S
O3121      C3131   1.278       .  A
O3122      C3132   1.278       .  A
O3123      C3132   1.278       .  A
O3124     Cu3128   2.007       .  S
O3124      C3131   1.278       .  A
O3125     Cu3128   2.008       .  S
O3125      C3130   1.276       .  A
O3126     Cu3128   2.007       .  S
O3126      C3129   1.278       .  A
Cu3127    Cu3128   2.373       .  S
C3129      C3497   1.480       .  S
C3130      C3504   1.434       .  S
C3131      C3484   1.481       .  S
C3132      C3474   1.481       .  S
O3133     Cu3141   2.007       .  S
O3134     Cu3141   2.009       .  S
O3135     Cu3141   2.009       .  S
O3136     Cu3141   2.008       .  S
O3137     Cu3142   2.008       .  S
O3137      C3146   1.278   1_565  A
O3138     Cu3142   2.007       .  S
O3138      C3145   1.278   1_565  A
O3139     Cu3142   2.011       .  S
O3139      C3144   1.277   1_565  A
O3140     Cu3142   2.009       .  S
O3140      C3143   1.279   1_565  A
C3143      C3462   1.481       .  S
C3144      C3471   1.435       .  S
C3145      C3509   1.481       .  S
C3146      C3519   1.481       .  S
O3147     Cu3155   2.007       .  S
O3147      C3157   1.278       .  A
O3148     Cu3155   2.008       .  S
O3148      C3158   1.278       .  A
O3149     Cu3155   2.009       .  S
O3149      C3159   1.276       .  A
O3150     Cu3155   2.008       .  S
O3150      C3160   1.278       .  A
O3151     Cu3156   2.010       .  S
O3151      C3160   1.278       .  A
O3152     Cu3156   2.010       .  S
O3152      C3159   1.276       .  A
O3153     Cu3156   2.008       .  S
O3153      C3158   1.279       .  A
O3154     Cu3156   2.009       .  S
O3154      C3157   1.278       .  A
Cu3155    Cu3156   2.373       .  S
C3157      C3477   1.481       .  S
C3158      C3487   1.481       .  S
C3159      C3459   1.435       .  S
C3160      C3450   1.482       .  S
O3161     Cu3169   2.006       .  S
O3162     Cu3169   2.009       .  S
O3162      C3172   1.277   1_465  A
O3163     Cu3169   2.012   1_655  S
O3165      C3174   1.279       .  A
O3166     Cu3170   2.004       .  S
O3166      C3173   1.278       .  A
O3167     Cu3170   2.010       .  S
O3168     Cu3170   2.012   1_455  S
O3168      C3171   1.277       .  A
C3171      C3536   1.435       .  S
C3172      C3697   1.472       .  S
O3175     Cu3183   2.006       .  S
O3175      C3185   1.276       .  A
O3176     Cu3183   2.007       .  S
O3176      C3186   1.277       .  A
O3177     Cu3183   2.013       .  S
O3177      C3187   1.279       .  A
O3178      C3188   1.278       .  A
O3179      C3188   1.279       .  A
O3180     Cu3184   2.005       .  S
O3180      C3187   1.278       .  A
O3181     Cu3184   2.008       .  S
O3181      C3186   1.277       .  A
O3182     Cu3184   2.009       .  S
O3182      C3185   1.276       .  A
Cu3183    Cu3184   2.375       .  S
C3185      C3503   1.434       .  S
C3186      C3665   1.467       .  S
C3187      C3420   1.481       .  S
C3188      C3410   1.480       .  S
O3189     Cu3197   2.010       .  S
O3190     Cu3197   2.012       .  S
O3190      C3200   1.277       .  A
O3191     Cu3197   2.012       .  S
O3192     Cu3197   2.005       .  S
O3193     Cu3198   2.011       .  S
O3193      C3202   1.279   1_565  A
O3194     Cu3198   2.006       .  S
O3194      C3201   1.278   1_565  A
O3195     Cu3198   2.007       .  S
O3196     Cu3198   2.009       .  S
O3196      C3199   1.278   1_565  A
C3199      C3653   1.475       .  S
C3200      C3472   1.435       .  S
C3201      C3443   1.481       .  S
C3202      C3433   1.481       .  S
O3203     Cu3211   2.005       .  S
O3203      C3213   1.278       .  A
O3204     Cu3211   2.011       .  S
O3204      C3214   1.279       .  A
O3205     Cu3211   2.009       .  S
O3205      C3215   1.278       .  A
O3206     Cu3211   2.010       .  S
O3206      C3216   1.276       .  A
O3207     Cu3212   2.008       .  S
O3207      C3216   1.276       .  A
O3208     Cu3212   2.007       .  S
O3208      C3215   1.277       .  A
O3209     Cu3212   2.004       .  S
O3209      C3214   1.278       .  A
O3210     Cu3212   2.012       .  S
O3210      C3213   1.279       .  A
Cu3211    Cu3212   2.374       .  S
C3213      C3423   1.481       .  S
C3214      C3413   1.480       .  S
C3215      C3621   1.471       .  S
C3216      C3460   1.435       .  S
O3217     Cu3225   2.011       .  S
O3218     Cu3225   2.013       .  S
O3219     Cu3225   2.008       .  S
O3221      C3230   1.278   1_565  A
O3222     Cu3226   2.008       .  S
O3222      C3229   1.278   1_565  A
O3223     Cu3226   2.005       .  S
O3223      C3228   1.278   1_565  A
O3224     Cu3226   2.006       .  S
O3224      C3227   1.276   1_565  A
C3227      C3752   1.434       .  S
C3228      C3529   1.481       .  S
C3229      C3400   1.481       .  S
C3230      C3390   1.481       .  S
O3231     Cu3239   2.011       .  S
O3231      C3241   1.276       .  A
O3232     Cu3239   2.010       .  S
O3232      C3242   1.278       .  A
O3233      C3243   1.279       .  A
O3234     Cu3239   2.008       .  S
O3234      C3244   1.278       .  A
O3235     Cu3240   2.008       .  S
O3235      C3244   1.278       .  A
O3236      C3243   1.278       .  A
O3237     Cu3240   2.008       .  S
O3237      C3242   1.278       .  A
O3238     Cu3240   2.009       .  S
O3238      C3241   1.276       .  A
Cu3239    Cu3240   2.373       .  S
C3241      C3729   1.436       .  S
C3242      C3494   1.481       .  S
C3243      C3370   1.481       .  S
C3244      C3380   1.481       .  S
O3245     Cu3253   2.006       .  S
O3245      C3255   1.276   1_565  A
O3246     Cu3253   2.004       .  S
O3246      C3256   1.278   1_565  A
O3247     Cu3253   2.008       .  S
O3247      C3257   1.279   1_565  A
O3248     Cu3253   2.009       .  S
O3248      C3258   1.278   1_565  A
O3249     Cu3254   2.008       .  S
O3250     Cu3254   2.008       .  S
O3251     Cu3254   2.014       .  S
O3252     Cu3254   2.012       .  S
C3255      C3707   1.434       .  S
C3256      C3465   1.481       .  S
C3257      C3403   1.481       .  S
C3258      C3393   1.481       .  S
O3259     Cu3267   2.011       .  S
O3259      C3269   1.278       .  A
O3260     Cu3267   2.011       .  S
O3260      C3270   1.276       .  A
O3261     Cu3267   2.007       .  S
O3261      C3271   1.278       .  A
O3262     Cu3267   2.008       .  S
O3262      C3272   1.278       .  A
O3263     Cu3268   2.008       .  S
O3263      C3272   1.278       .  A
O3264     Cu3268   2.009       .  S
O3264      C3271   1.278       .  A
O3265     Cu3268   2.009       .  S
O3265      C3270   1.276       .  A
O3266     Cu3268   2.009       .  S
O3266      C3269   1.278       .  A
Cu3267    Cu3268   2.373       .  S
C3269      C3453   1.482       .  S
C3270      C3706   1.435       .  S
C3271      C3373   1.481       .  S
C3272      C3383   1.481       .  S
O3273     Cu3281   2.007   1_545  S
O3273      C3283   1.278       .  A
O3274     Cu3281   2.007       .  S
O3274      C3284   1.276       .  A
O3275     Cu3281   2.008       .  S
O3275      C3285   1.278       .  A
O3276      C3286   1.278       .  A
O3278     Cu3282   2.008       .  S
O3279     Cu3282   2.011       .  S
O3280     Cu3282   2.011   1_545  S
C3283      C3611   1.481       .  S
C3284      C3839   1.435       .  S
C3285      C3350   1.481       .  S
C3286      C3360   1.481       .  S
O3287     Cu3295   2.008       .  S
O3287      C3297   1.278       .  A
O3288     Cu3295   2.007       .  S
O3288      C3298   1.276       .  A
O3289     Cu3295   2.008       .  S
O3289      C3299   1.278       .  A
O3290     Cu3295   2.009       .  S
O3290      C3300   1.278       .  A
O3291     Cu3296   2.008       .  S
O3292     Cu3296   2.009       .  S
O3293     Cu3296   2.010       .  S
O3294     Cu3296   2.010       .  S
C3297      C3581   1.481       .  S
C3299      C3363   1.481       .  S
C3300      C3353   1.481       .  S
O3301     Cu3309   2.010       .  S
O3301      C3311   1.276       .  A
O3302     Cu3309   2.007   1_545  S
O3302      C3312   1.278       .  A
O3303      C3313   1.278       .  A
O3304     Cu3309   2.009       .  S
O3304      C3314   1.278       .  A
O3305     Cu3310   2.008       .  S
O3305      C3314   1.278       .  A
O3306      C3313   1.278       .  A
O3307     Cu3310   2.009       .  S
O3307      C3312   1.278   1_565  A
O3308     Cu3310   2.009       .  S
O3308      C3311   1.276       .  A
Cu3309    Cu3310   2.373       .  S
C3311      C3795   1.435       .  S
C3312      C3571   1.481       .  S
C3313      C3340   1.481       .  S
C3314      C3330   1.481       .  S
O3315     Cu3323   2.008       .  S
O3315      C3325   1.278       .  A
O3316     Cu3323   2.009       .  S
O3316      C3326   1.276       .  A
O3317     Cu3323   2.008       .  S
O3317      C3327   1.278       .  A
O3318     Cu3323   2.008       .  S
O3318      C3328   1.278       .  A
O3319     Cu3324   2.009       .  S
O3319      C3328   1.278       .  A
O3320     Cu3324   2.008       .  S
O3320      C3327   1.278       .  A
O3321     Cu3324   2.008       .  S
O3321      C3326   1.276       .  A
O3322     Cu3324   2.009       .  S
O3322      C3325   1.278       .  A
Cu3323    Cu3324   2.373       .  S
C3325      C3541   1.481       .  S
C3326      C3764   1.435       .  S
C3327      C3343   1.481       .  S
C3328      C3333   1.481       .  S
C3329      C3330   1.406       .  A
C3329      C3334   1.398       .  A
C3329      H3335   1.083       .  S
C3330      C3331   1.406       .  A
C3331      C3332   1.398       .  A
C3331      H3336   1.083       .  S
C3332      C3333   1.406       .  A
C3332      H3337   1.083       .  S
C3333      C3334   1.405       .  A
C3334      H3338   1.083       .  S
C3339      C3340   1.406       .  A
C3339      C3344   1.398       .  A
C3339      H3345   1.083       .  S
C3340      C3341   1.406       .  A
C3341      C3342   1.398       .  A
C3341      H3346   1.083       .  S
C3342      C3343   1.406       .  A
C3342      H3347   1.083       .  S
C3343      C3344   1.406       .  A
C3344      H3348   1.083       .  S
C3349      C3350   1.406       .  A
C3349      C3354   1.398       .  A
C3349      H3355   1.083       .  S
C3351      C3352   1.398       .  A
C3351      H3356   1.083       .  S
C3352      H3357   1.083       .  S
C3353      C3354   1.406       .  A
C3354      H3358   1.083       .  S
C3359      C3360   1.405       .  A
C3359      C3364   1.398       .  A
C3359      H3365   1.083       .  S
C3361      C3362   1.398       .  A
C3361      H3366   1.083       .  S
C3362      H3367   1.083       .  S
C3363      C3364   1.406       .  A
C3364      H3368   1.083       .  S
C3369      C3370   1.405       .  A
C3369      C3374   1.397       .  A
C3369      H3375   1.083       .  S
C3370      C3371   1.406       .  A
C3371      C3372   1.398       .  A
C3371      H3376   1.083       .  S
C3372      C3373   1.406       .  A
C3372      H3377   1.083       .  S
C3373      C3374   1.405       .  A
C3374      H3378   1.083       .  S
C3379      C3380   1.406       .  A
C3379      C3384   1.398       .  A
C3379      H3385   1.083       .  S
C3380      C3381   1.405       .  A
C3381      C3382   1.397       .  A
C3381      H3386   1.083       .  S
C3382      C3383   1.405       .  A
C3382      H3387   1.083       .  S
C3383      C3384   1.406       .  A
C3384      H3388   1.083       .  S
C3389      C3394   1.397       .  A
C3389      H3395   1.083       .  S
C3390      C3391   1.406   1_545  A
C3391      C3392   1.398       .  A
C3391      H3396   1.083       .  S
C3392      C3393   1.406   1_565  A
C3392      H3397   1.083       .  S
C3394      H3398   1.083       .  S
C3399      C3400   1.405   1_565  A
C3399      C3404   1.397       .  A
C3399      H3405   1.083       .  S
C3401      C3402   1.398       .  A
C3401      H3406   1.083       .  S
C3402      H3407   1.083       .  S
C3403      C3404   1.405   1_545  A
C3404      H3408   1.083       .  S
C3409      C3410   1.406       .  A
C3409      C3414   1.398       .  A
C3409      H3415   1.083       .  S
C3410      C3411   1.405       .  A
C3411      C3412   1.397       .  A
C3411      H3416   1.083       .  S
C3412      C3413   1.405       .  A
C3412      H3417   1.083       .  S
C3413      C3414   1.406       .  A
C3414      H3418   1.083       .  S
C3419      C3420   1.406       .  A
C3419      C3424   1.397       .  A
C3419      H3425   1.083       .  S
C3420      C3421   1.405       .  A
C3421      C3422   1.398       .  A
C3421      H3426   1.083       .  S
C3422      C3423   1.406       .  A
C3422      H3427   1.083       .  S
C3423      C3424   1.406       .  A
C3424      H3428   1.083       .  S
C3429      C3434   1.397       .  A
C3429      H3435   1.083       .  S
C3430      C3431   1.405   1_545  A
C3431      C3432   1.398       .  A
C3431      H3436   1.083       .  S
C3432      C3433   1.406   1_565  A
C3432      H3437   1.083       .  S
C3434      H3438   1.083       .  S
C3439      C3440   1.405   1_565  A
C3439      C3444   1.397       .  A
C3439      H3445   1.083       .  S
C3441      C3442   1.399       .  A
C3441      H3446   1.083       .  S
C3442      H3447   1.083       .  S
C3443      C3444   1.405   1_545  A
C3444      H3448   1.083       .  S
C3449      C3450   1.406       .  A
C3449      C3454   1.398   1_554  A
C3449      H3455   1.083       .  S
C3450      C3451   1.406       .  A
C3451      C3452   1.399   1_554  A
C3451      H3456   1.083       .  S
C3452      C3453   1.406       .  A
C3452      H3457   1.083       .  S
C3453      C3454   1.406       .  A
C3454      H3458   1.083       .  S
C3459      C3460   1.206       .  T
C3461      C3462   1.405   1_565  A
C3461      C3466   1.397   1_554  A
C3461      H3467   1.083       .  S
C3463      C3464   1.399   1_554  A
C3463      H3468   1.083       .  S
C3464      H3469   1.083       .  S
C3465      C3466   1.406   1_545  A
C3466      H3470   1.083       .  S
C3473      C3474   1.405       .  A
C3473      C3478   1.397       .  A
C3473      H3479   1.083       .  S
C3474      C3475   1.406       .  A
C3475      C3476   1.399       .  A
C3475      H3480   1.083       .  S
C3476      C3477   1.406       .  A
C3476      H3481   1.083       .  S
C3477      C3478   1.405       .  A
C3478      H3482   1.083       .  S
C3483      C3484   1.406       .  A
C3483      C3488   1.399       .  A
C3483      H3489   1.083       .  S
C3484      C3485   1.405       .  A
C3485      C3486   1.397       .  A
C3485      H3490   1.083       .  S
C3486      C3487   1.405       .  A
C3486      H3491   1.083       .  S
C3487      C3488   1.406       .  A
C3488      H3492   1.083       .  S
C3493      C3494   1.406       .  A
C3493      C3498   1.397   1_556  A
C3493      H3499   1.083       .  S
C3495      C3496   1.398   1_556  A
C3495      H3500   1.083       .  S
C3496      H3501   1.083       .  S
C3497      C3498   1.405       .  A
C3498      H3502   1.083       .  S
C3503      C3504   1.205       .  T
C3505      C3506   1.406   1_565  A
C3505      C3510   1.397       .  A
C3505      H3511   1.083       .  S
C3507      C3508   1.398       .  A
C3507      H3512   1.083       .  S
C3508      H3513   1.083       .  S
C3509      C3510   1.406   1_545  A
C3510      H3514   1.083       .  S
C3515      C3520   1.397       .  A
C3515      H3521   1.083       .  S
C3516      C3517   1.406   1_545  A
C3517      C3518   1.398       .  A
C3517      H3522   1.083       .  S
C3518      C3519   1.406   1_565  A
C3518      H3523   1.083       .  S
C3520      H3524   1.083       .  S
C3525      C3530   1.398   1_554  A
C3525      H3531   1.083       .  S
C3526      C3527   1.405   1_645  A
C3527      C3528   1.397   1_554  A
C3527      H3532   1.083       .  S
C3528      H3533   1.083       .  S
C3530      H3534   1.083       .  S
C3535      C3536   1.206       .  T
C3537      C3538   1.405       .  A
C3537      C3542   1.398       .  A
C3537      H3543   1.083       .  S
C3538      C3539   1.406       .  A
C3539      C3540   1.397       .  A
C3539      H3544   1.083       .  S
C3540      C3541   1.405       .  A
C3540      H3545   1.083       .  S
C3541      C3542   1.406       .  A
C3542      H3546   1.083       .  S
C3547      C3548   1.405       .  A
C3547      C3552   1.397       .  A
C3547      H3553   1.083       .  S
C3548      C3549   1.406       .  A
C3549      C3550   1.398       .  A
C3549      H3554   1.083       .  S
C3550      C3551   1.406       .  A
C3550      H3555   1.083       .  S
C3551      C3552   1.405       .  A
C3552      H3556   1.083       .  S
C3557      C3558   1.406       .  A
C3557      C3562   1.398       .  A
C3557      H3563   1.083       .  S
C3558      C3559   1.405       .  A
C3559      C3560   1.397       .  A
C3559      H3564   1.083       .  S
C3560      C3561   1.405       .  A
C3560      H3565   1.083       .  S
C3561      C3562   1.406       .  A
C3562      H3566   1.083       .  S
C3567      C3572   1.398       .  A
C3567      H3573   1.083       .  S
C3568      C3569   1.405       .  A
C3569      C3570   1.397       .  A
C3569      H3574   1.083       .  S
C3570      C3571   1.405       .  A
C3570      H3575   1.083       .  S
C3572      H3576   1.083       .  S
C3577      C3582   1.399       .  A
C3577      H3583   1.083       .  S
C3578      C3579   1.405       .  A
C3579      C3580   1.397       .  A
C3579      H3584   1.083       .  S
C3580      C3581   1.405       .  A
C3580      H3585   1.083       .  S
C3582      H3586   1.083       .  S
C3587      C3588   1.405       .  A
C3587      C3592   1.398       .  A
C3587      H3593   1.083       .  S
C3589      C3590   1.398       .  A
C3589      H3594   1.083       .  S
C3590      H3595   1.083       .  S
C3591      C3592   1.406       .  A
C3592      H3596   1.083       .  S
C3597      C3598   1.405       .  A
C3597      C3602   1.398       .  A
C3597      H3603   1.083       .  S
C3599      C3600   1.398       .  A
C3599      H3604   1.083       .  S
C3600      H3605   1.083       .  S
C3601      C3602   1.406       .  A
C3602      H3606   1.083       .  S
C3607      C3612   1.397       .  A
C3607      H3613   1.083       .  S
C3609      C3610   1.398       .  A
C3609      H3614   1.083       .  S
C3610      H3615   1.083       .  S
C3612      H3616   1.083       .  S
C3617      C3618   1.403       .  A
C3617      C3622   1.398       .  A
C3617      H3623   1.083       .  S
C3618      C3619   1.403       .  A
C3619      C3620   1.398       .  A
C3619      H3624   1.083       .  S
C3620      C3621   1.403       .  A
C3620      H3625   1.083       .  S
C3621      C3622   1.404       .  A
C3622      H3626   1.083       .  S
C3627      C3628   1.205       .  T
C3629      C3630   1.406       .  A
C3629      C3634   1.397       .  A
C3629      H3635   1.083       .  S
C3630      C3631   1.405       .  A
C3631      C3632   1.398       .  A
C3631      H3636   1.083       .  S
C3632      C3633   1.406       .  A
C3632      H3637   1.083       .  S
C3633      C3634   1.405       .  A
C3634      H3638   1.083       .  S
C3639      C3640   1.406       .  A
C3639      C3644   1.397       .  A
C3639      H3645   1.083       .  S
C3640      C3641   1.405       .  A
C3641      C3642   1.398       .  A
C3641      H3646   1.083       .  S
C3642      C3643   1.406       .  A
C3642      H3647   1.083       .  S
C3643      C3644   1.405       .  A
C3644      H3648   1.083       .  S
C3649      C3650   1.402   1_565  A
C3649      C3654   1.398       .  A
C3649      H3655   1.083       .  S
C3651      C3652   1.398       .  A
C3651      H3656   1.084       .  S
C3652      H3657   1.083       .  S
C3653      C3654   1.405   1_545  A
C3654      H3658   1.083       .  S
C3659      C3660   1.205       .  T
C3661      C3666   1.399       .  A
C3661      H3667   1.083       .  S
C3662      C3663   1.405       .  A
C3663      C3664   1.398       .  A
C3663      H3668   1.083       .  S
C3664      C3665   1.401       .  A
C3664      H3669   1.084       .  S
C3666      H3670   1.083       .  S
C3671      C3672   1.206       .  T
C3673      C3678   1.398       .  A
C3673      H3679   1.083       .  S
C3674      C3675   1.406       .  A
C3675      C3676   1.398       .  A
C3675      H3680   1.083       .  S
C3676      C3677   1.405       .  A
C3676      H3681   1.083       .  S
C3678      H3682   1.083       .  S
C3683      C3688   1.398       .  A
C3683      H3689   1.083       .  S
C3684      C3685   1.405       .  A
C3685      C3686   1.398       .  A
C3685      H3690   1.083       .  S
C3686      C3687   1.406       .  A
C3686      H3691   1.083       .  S
C3688      H3692   1.083       .  S
C3693      C3698   1.398       .  A
C3693      H3699   1.083       .  S
C3695      C3696   1.398       .  A
C3695      H3700   1.083       .  S
C3696      H3701   1.083       .  S
C3698      H3702   1.083       .  S
C3703      C3704   1.205       .  T
C3705      C3706   1.206       .  T
C3707      C3708   1.205       .  T
C3709      C3710   1.406       .  A
C3709      C3714   1.397       .  A
C3709      H3715   1.083       .  S
C3710      C3711   1.405       .  A
C3711      C3712   1.398       .  A
C3711      H3716   1.083       .  S
C3712      C3713   1.406       .  A
C3712      H3717   1.083       .  S
C3713      C3714   1.405       .  A
C3714      H3718   1.083       .  S
C3719      C3720   1.406       .  A
C3719      C3724   1.397       .  A
C3719      H3725   1.083       .  S
C3720      C3721   1.405       .  A
C3721      C3722   1.398       .  A
C3721      H3726   1.083       .  S
C3722      C3723   1.406       .  A
C3722      H3727   1.083       .  S
C3723      C3724   1.405       .  A
C3724      H3728   1.083       .  S
C3729      C3730   1.206       .  T
C3731      C3736   1.401       .  A
C3731      H3737   1.083       .  S
C3732      C3733   1.405   1_545  A
C3733      C3734   1.395       .  A
C3733      H3738   1.083       .  S
C3734      C3735   1.405   1_565  A
C3734      H3739   1.083       .  S
C3736      H3740   1.083       .  S
C3741      C3742   1.407   1_565  A
C3741      C3746   1.401       .  A
C3741      H3747   1.083       .  S
C3743      C3744   1.395       .  A
C3743      H3748   1.083       .  S
C3744      H3749   1.083       .  S
C3745      C3746   1.407   1_545  A
C3746      H3750   1.083       .  S
C3751      C3752   1.205       .  T
C3753      C3754   1.404       .  A
C3753      C3758   1.399       .  A
C3753      H3759   1.083       .  S
C3754      C3755   1.404       .  A
C3755      C3756   1.398       .  A
C3755      H3760   1.083       .  S
C3756      C3757   1.403       .  A
C3756      H3761   1.083       .  S
C3757      C3758   1.403       .  A
C3758      H3762   1.083       .  S
C3763      C3764   1.206       .  T
C3765      C3766   1.406       .  A
C3765      C3770   1.398       .  A
C3765      H3771   1.083       .  S
C3766      C3767   1.405       .  A
C3767      C3768   1.398       .  A
C3767      H3772   1.083       .  S
C3768      C3769   1.406       .  A
C3768      H3773   1.083       .  S
C3769      C3770   1.406       .  A
C3770      H3774   1.083       .  S
C3775      C3776   1.406       .  A
C3775      C3780   1.397       .  A
C3775      H3781   1.083       .  S
C3776      C3777   1.405       .  A
C3777      C3778   1.398       .  A
C3777      H3782   1.083       .  S
C3778      C3779   1.406       .  A
C3778      H3783   1.083       .  S
C3779      C3780   1.405       .  A
C3780      H3784   1.083       .  S
C3785      C3786   1.403   1_565  A
C3785      C3790   1.398       .  A
C3785      H3791   1.083       .  S
C3787      C3788   1.399       .  A
C3787      H3792   1.083       .  S
C3788      H3793   1.083       .  S
C3789      C3790   1.404   1_545  A
C3790      H3794   1.083       .  S
C3795      C3796   1.206       .  T
C3797      C3798   1.405       .  A
C3797      C3802   1.399       .  A
C3797      H3803   1.083       .  S
C3799      C3800   1.399       .  A
C3799      H3804   1.083       .  S
C3800      C3801   1.402       .  A
C3800      H3805   1.083       .  S
C3802      H3806   1.083       .  S
C3807      C3808   1.206       .  T
C3809      C3814   1.400       .  A
C3809      H3815   1.083       .  S
C3810      C3811   1.405       .  A
C3811      C3812   1.396       .  A
C3811      H3816   1.083       .  S
C3812      C3813   1.405       .  A
C3812      H3817   1.083       .  S
C3814      H3818   1.083       .  S
C3819      C3820   1.406       .  A
C3819      C3824   1.400       .  A
C3819      H3825   1.083       .  S
C3821      C3822   1.395       .  A
C3821      H3826   1.083       .  S
C3822      H3827   1.083       .  S
C3823      C3824   1.406       .  A
C3824      H3828   1.083       .  S
C3829      C3834   1.398       .  A
C3829      H3835   1.083       .  S
C3830      C3831   1.405   1_545  A
C3831      C3832   1.398       .  A
C3831      H3836   1.083       .  S
C3832      C3833   1.402   1_565  A
C3832      H3837   1.083       .  S
C3834      H3838   1.083       .  S
C3839      C3840   1.206       .  T
